/*---------------------------------------------------------------------------*\
| =========                 |                                                 |
| \\      /  F ield         | OpenFOAM: The Open Source CFD Toolbox           |
|  \\    /   O peration     | Version:  2.1.1                                 |
|   \\  /    A nd           | Web:      www.OpenFOAM.org                      |
|    \\/     M anipulation  |                                                 |
\*---------------------------------------------------------------------------*/
Build  : 2.1.1-221db2718bbb
Exec   : buoyantBoussinesqSimpleFoam -parallel
Date   : Dec 01 2013
Time   : 19:58:24
Host   : "ubuntu"
PID    : 29227
Case   : /home/jeffosborne/OpenFOAM/NozzleFlow/R3_Re2.01M_Pr1.84_M1
nProcs : 8
Slaves : 
7
(
"ubuntu.29228"
"ubuntu.29229"
"ubuntu.29230"
"ubuntu.29231"
"ubuntu.29232"
"ubuntu.29233"
"ubuntu.29234"
)

Pstream initialized with:
    floatTransfer     : 0
    nProcsSimpleSum   : 0
    commsType         : nonBlocking
sigFpe : Enabling floating point exception trapping (FOAM_SIGFPE).
fileModificationChecking : Monitoring run-time modified files using timeStampMaster
allowSystemOperations : Disallowing user-supplied system call operations

// * * * * * * * * * * * * * * * * * * * * * * * * * * * * * * * * * * * * * //
Create time

Create mesh for time = 0


Reading g
Reading thermophysical properties

Reading field T

Reading field p_rgh

Reading field U

Reading/calculating face flux field phi

Selecting incompressible transport model Newtonian
Creating turbulence model

Selecting RAS turbulence model kEpsilon
kEpsilonCoeffs
{
    Cmu             0.09;
    C1              1.44;
    C2              1.92;
    sigmaEps        1.3;
}

Reading field kappat

Calculating field g.h


SIMPLE: no convergence criteria found. Calculations will run for 10000 steps.


Starting time loop

Time = 1

DILUPBiCG:  Solving for Ux, Initial residual = 0.00556904, Final residual = 9.16026e-09, No Iterations 9
DILUPBiCG:  Solving for Uy, Initial residual = 0.00930155, Final residual = 9.07442e-09, No Iterations 9
DILUPBiCG:  Solving for T, Initial residual = 1, Final residual = 8.25291e-07, No Iterations 644
GAMG:  Solving for p_rgh, Initial residual = 1, Final residual = 0.00901606, No Iterations 10
time step continuity errors : sum local = 0.443788, global = -0.0386328, cumulative = -0.0386328
DILUPBiCG:  Solving for epsilon, Initial residual = 0.146744, Final residual = 9.49013e-08, No Iterations 7
DILUPBiCG:  Solving for k, Initial residual = 1, Final residual = 5.70449e-07, No Iterations 9
ExecutionTime = 1.21 s  ClockTime = 1 s

Time = 2

DILUPBiCG:  Solving for Ux, Initial residual = 0.0019385, Final residual = 2.27752e-09, No Iterations 7
DILUPBiCG:  Solving for Uy, Initial residual = 0.0028807, Final residual = 2.87236e-09, No Iterations 7
DILUPBiCG:  Solving for T, Initial residual = 0.511166, Final residual = 4.69309e-07, No Iterations 452
GAMG:  Solving for p_rgh, Initial residual = 0.433404, Final residual = 0.00361116, No Iterations 12
time step continuity errors : sum local = 0.326036, global = -0.0241669, cumulative = -0.0627997
DILUPBiCG:  Solving for epsilon, Initial residual = 0.0883803, Final residual = 1.05213e-07, No Iterations 6
bounding epsilon, min: -484.829 max: 8.04921e+06 average: 91948.5
DILUPBiCG:  Solving for k, Initial residual = 0.373589, Final residual = 5.57309e-07, No Iterations 7
ExecutionTime = 1.84 s  ClockTime = 2 s

Time = 3

DILUPBiCG:  Solving for Ux, Initial residual = 0.00424302, Final residual = 3.29816e-09, No Iterations 8
DILUPBiCG:  Solving for Uy, Initial residual = 0.00702128, Final residual = 7.39468e-09, No Iterations 7
DILUPBiCG:  Solving for T, Initial residual = 0.18037, Final residual = 7.41607e-07, No Iterations 448
GAMG:  Solving for p_rgh, Initial residual = 0.180672, Final residual = 0.00159247, No Iterations 16
time step continuity errors : sum local = 0.136131, global = -0.00580566, cumulative = -0.0686054
DILUPBiCG:  Solving for epsilon, Initial residual = 0.0729615, Final residual = 1.54309e-07, No Iterations 6
DILUPBiCG:  Solving for k, Initial residual = 0.190603, Final residual = 2.94968e-07, No Iterations 7
ExecutionTime = 2.52 s  ClockTime = 2 s

Time = 4

DILUPBiCG:  Solving for Ux, Initial residual = 0.00364898, Final residual = 1.61848e-09, No Iterations 8
DILUPBiCG:  Solving for Uy, Initial residual = 0.00545588, Final residual = 1.51884e-09, No Iterations 8
DILUPBiCG:  Solving for T, Initial residual = 0.230908, Final residual = 8.3711e-07, No Iterations 442
GAMG:  Solving for p_rgh, Initial residual = 0.449723, Final residual = 0.00434703, No Iterations 13
time step continuity errors : sum local = 0.312397, global = 0.01922, cumulative = -0.0493854
DILUPBiCG:  Solving for epsilon, Initial residual = 0.0659591, Final residual = 6.81713e-07, No Iterations 5
DILUPBiCG:  Solving for k, Initial residual = 0.128751, Final residual = 9.13748e-07, No Iterations 6
ExecutionTime = 3.12 s  ClockTime = 3 s

Time = 5

DILUPBiCG:  Solving for Ux, Initial residual = 0.0020827, Final residual = 7.60688e-09, No Iterations 7
DILUPBiCG:  Solving for Uy, Initial residual = 0.00347869, Final residual = 1.69258e-09, No Iterations 8
DILUPBiCG:  Solving for T, Initial residual = 0.209928, Final residual = 8.83765e-07, No Iterations 420
GAMG:  Solving for p_rgh, Initial residual = 0.458907, Final residual = 0.00396266, No Iterations 13
time step continuity errors : sum local = 0.186719, global = -0.000212288, cumulative = -0.0495977
DILUPBiCG:  Solving for epsilon, Initial residual = 0.0555999, Final residual = 3.89724e-07, No Iterations 5
DILUPBiCG:  Solving for k, Initial residual = 0.0943218, Final residual = 5.42378e-07, No Iterations 6
ExecutionTime = 3.69 s  ClockTime = 4 s

Time = 6

DILUPBiCG:  Solving for Ux, Initial residual = 0.00282502, Final residual = 2.38897e-09, No Iterations 8
DILUPBiCG:  Solving for Uy, Initial residual = 0.004647, Final residual = 3.40876e-09, No Iterations 8
DILUPBiCG:  Solving for T, Initial residual = 0.105519, Final residual = 9.97012e-07, No Iterations 416
GAMG:  Solving for p_rgh, Initial residual = 0.365404, Final residual = 0.00308968, No Iterations 14
time step continuity errors : sum local = 0.138629, global = 0.00797929, cumulative = -0.0416184
DILUPBiCG:  Solving for epsilon, Initial residual = 0.0414253, Final residual = 2.71536e-07, No Iterations 5
DILUPBiCG:  Solving for k, Initial residual = 0.0736161, Final residual = 3.42155e-07, No Iterations 6
ExecutionTime = 4.3 s  ClockTime = 4 s

Time = 7

DILUPBiCG:  Solving for Ux, Initial residual = 0.0019917, Final residual = 8.94329e-09, No Iterations 7
DILUPBiCG:  Solving for Uy, Initial residual = 0.00299851, Final residual = 1.30469e-09, No Iterations 8
DILUPBiCG:  Solving for T, Initial residual = 0.0327903, Final residual = 7.90001e-07, No Iterations 385
GAMG:  Solving for p_rgh, Initial residual = 0.351947, Final residual = 0.00300027, No Iterations 12
time step continuity errors : sum local = 0.171469, global = -0.0103864, cumulative = -0.0520048
DILUPBiCG:  Solving for epsilon, Initial residual = 0.0329469, Final residual = 3.14959e-07, No Iterations 5
DILUPBiCG:  Solving for k, Initial residual = 0.0597554, Final residual = 8.24729e-07, No Iterations 6
ExecutionTime = 4.87 s  ClockTime = 5 s

Time = 8

DILUPBiCG:  Solving for Ux, Initial residual = 0.0016268, Final residual = 3.9289e-09, No Iterations 7
DILUPBiCG:  Solving for Uy, Initial residual = 0.00289303, Final residual = 2.02797e-09, No Iterations 8
DILUPBiCG:  Solving for T, Initial residual = 0.0369719, Final residual = 8.00719e-07, No Iterations 399
GAMG:  Solving for p_rgh, Initial residual = 0.180118, Final residual = 0.00179533, No Iterations 15
time step continuity errors : sum local = 0.114059, global = -0.0050542, cumulative = -0.057059
DILUPBiCG:  Solving for epsilon, Initial residual = 0.0270655, Final residual = 4.15073e-08, No Iterations 6
DILUPBiCG:  Solving for k, Initial residual = 0.0509779, Final residual = 4.06811e-07, No Iterations 6
ExecutionTime = 5.43 s  ClockTime = 5 s

Time = 9

DILUPBiCG:  Solving for Ux, Initial residual = 0.00195631, Final residual = 1.14311e-09, No Iterations 8
DILUPBiCG:  Solving for Uy, Initial residual = 0.00313005, Final residual = 7.23834e-09, No Iterations 7
DILUPBiCG:  Solving for T, Initial residual = 0.0268422, Final residual = 9.64092e-07, No Iterations 389
GAMG:  Solving for p_rgh, Initial residual = 0.187618, Final residual = 0.00163946, No Iterations 14
time step continuity errors : sum local = 0.0969177, global = -0.00470709, cumulative = -0.0617661
DILUPBiCG:  Solving for epsilon, Initial residual = 0.0236855, Final residual = 7.29631e-07, No Iterations 4
DILUPBiCG:  Solving for k, Initial residual = 0.0441036, Final residual = 4.01882e-07, No Iterations 6
ExecutionTime = 5.98 s  ClockTime = 6 s

Time = 10

DILUPBiCG:  Solving for Ux, Initial residual = 0.00152166, Final residual = 1.21278e-09, No Iterations 8
DILUPBiCG:  Solving for Uy, Initial residual = 0.00227951, Final residual = 4.38777e-09, No Iterations 7
DILUPBiCG:  Solving for T, Initial residual = 0.01871, Final residual = 5.67293e-07, No Iterations 389
GAMG:  Solving for p_rgh, Initial residual = 0.222656, Final residual = 0.00218516, No Iterations 13
time step continuity errors : sum local = 0.109493, global = 0.00818123, cumulative = -0.0535848
DILUPBiCG:  Solving for epsilon, Initial residual = 0.0193934, Final residual = 5.42984e-07, No Iterations 4
DILUPBiCG:  Solving for k, Initial residual = 0.0387228, Final residual = 4.28753e-07, No Iterations 6
ExecutionTime = 6.54 s  ClockTime = 6 s

Time = 11

DILUPBiCG:  Solving for Ux, Initial residual = 0.00146589, Final residual = 9.95528e-10, No Iterations 8
DILUPBiCG:  Solving for Uy, Initial residual = 0.00252192, Final residual = 1.35008e-09, No Iterations 8
DILUPBiCG:  Solving for T, Initial residual = 0.0155726, Final residual = 8.11692e-07, No Iterations 374
GAMG:  Solving for p_rgh, Initial residual = 0.141322, Final residual = 0.00129663, No Iterations 17
time step continuity errors : sum local = 0.0601365, global = 0.00263715, cumulative = -0.0509477
DILUPBiCG:  Solving for epsilon, Initial residual = 0.0159354, Final residual = 3.18465e-07, No Iterations 4
DILUPBiCG:  Solving for k, Initial residual = 0.0344706, Final residual = 4.92897e-07, No Iterations 6
ExecutionTime = 7.09 s  ClockTime = 7 s

Time = 12

DILUPBiCG:  Solving for Ux, Initial residual = 0.0014979, Final residual = 5.74354e-09, No Iterations 7
DILUPBiCG:  Solving for Uy, Initial residual = 0.00244719, Final residual = 5.32893e-09, No Iterations 7
DILUPBiCG:  Solving for T, Initial residual = 0.0148818, Final residual = 5.00097e-07, No Iterations 368
GAMG:  Solving for p_rgh, Initial residual = 0.157283, Final residual = 0.00136516, No Iterations 14
time step continuity errors : sum local = 0.0671789, global = 0.00355574, cumulative = -0.0473919
DILUPBiCG:  Solving for epsilon, Initial residual = 0.0136143, Final residual = 2.26167e-07, No Iterations 4
DILUPBiCG:  Solving for k, Initial residual = 0.0312075, Final residual = 6.08861e-07, No Iterations 6
ExecutionTime = 7.62 s  ClockTime = 7 s

Time = 13

DILUPBiCG:  Solving for Ux, Initial residual = 0.00135237, Final residual = 7.88648e-10, No Iterations 8
DILUPBiCG:  Solving for Uy, Initial residual = 0.00225403, Final residual = 2.76962e-09, No Iterations 7
DILUPBiCG:  Solving for T, Initial residual = 0.0145321, Final residual = 6.94361e-07, No Iterations 367
GAMG:  Solving for p_rgh, Initial residual = 0.122727, Final residual = 0.00116885, No Iterations 13
time step continuity errors : sum local = 0.0624292, global = -0.00419463, cumulative = -0.0515866
DILUPBiCG:  Solving for epsilon, Initial residual = 0.0124577, Final residual = 1.92134e-07, No Iterations 4
DILUPBiCG:  Solving for k, Initial residual = 0.0285701, Final residual = 6.5133e-07, No Iterations 6
ExecutionTime = 8.16 s  ClockTime = 8 s

Time = 14

DILUPBiCG:  Solving for Ux, Initial residual = 0.00138331, Final residual = 4.12774e-10, No Iterations 8
DILUPBiCG:  Solving for Uy, Initial residual = 0.00239875, Final residual = 1.484e-09, No Iterations 8
DILUPBiCG:  Solving for T, Initial residual = 0.0141637, Final residual = 8.38268e-07, No Iterations 366
GAMG:  Solving for p_rgh, Initial residual = 0.0807112, Final residual = 0.0006901, No Iterations 19
time step continuity errors : sum local = 0.0377428, global = -0.00164287, cumulative = -0.0532294
DILUPBiCG:  Solving for epsilon, Initial residual = 0.0118174, Final residual = 1.82127e-07, No Iterations 4
DILUPBiCG:  Solving for k, Initial residual = 0.0263235, Final residual = 8.28346e-07, No Iterations 5
ExecutionTime = 9.16 s  ClockTime = 9 s

Time = 15

DILUPBiCG:  Solving for Ux, Initial residual = 0.00135152, Final residual = 7.33665e-09, No Iterations 7
DILUPBiCG:  Solving for Uy, Initial residual = 0.00220202, Final residual = 3.55462e-09, No Iterations 7
DILUPBiCG:  Solving for T, Initial residual = 0.0138783, Final residual = 8.76576e-07, No Iterations 363
GAMG:  Solving for p_rgh, Initial residual = 0.0953138, Final residual = 0.000764905, No Iterations 16
time step continuity errors : sum local = 0.0401249, global = -0.0019018, cumulative = -0.0551312
DILUPBiCG:  Solving for epsilon, Initial residual = 0.0112384, Final residual = 1.1449e-07, No Iterations 5
DILUPBiCG:  Solving for k, Initial residual = 0.0244049, Final residual = 7.29596e-07, No Iterations 5
ExecutionTime = 9.83 s  ClockTime = 10 s

Time = 16

DILUPBiCG:  Solving for Ux, Initial residual = 0.00123555, Final residual = 1.91169e-09, No Iterations 8
DILUPBiCG:  Solving for Uy, Initial residual = 0.00208174, Final residual = 8.96031e-09, No Iterations 7
DILUPBiCG:  Solving for T, Initial residual = 0.0135902, Final residual = 8.12426e-07, No Iterations 363
GAMG:  Solving for p_rgh, Initial residual = 0.081181, Final residual = 0.000751554, No Iterations 16
time step continuity errors : sum local = 0.0376295, global = -0.00238709, cumulative = -0.0575183
DILUPBiCG:  Solving for epsilon, Initial residual = 0.0107184, Final residual = 2.8377e-07, No Iterations 4
DILUPBiCG:  Solving for k, Initial residual = 0.0227788, Final residual = 5.72245e-07, No Iterations 5
ExecutionTime = 10.46 s  ClockTime = 10 s

Time = 17

DILUPBiCG:  Solving for Ux, Initial residual = 0.00122215, Final residual = 4.16824e-09, No Iterations 7
DILUPBiCG:  Solving for Uy, Initial residual = 0.00216947, Final residual = 3.03621e-09, No Iterations 7
DILUPBiCG:  Solving for T, Initial residual = 0.0133353, Final residual = 8.00067e-07, No Iterations 366
GAMG:  Solving for p_rgh, Initial residual = 0.067188, Final residual = 0.000588462, No Iterations 17
time step continuity errors : sum local = 0.0295062, global = 0.00150813, cumulative = -0.0560102
DILUPBiCG:  Solving for epsilon, Initial residual = 0.0102706, Final residual = 2.73152e-07, No Iterations 4
DILUPBiCG:  Solving for k, Initial residual = 0.0213695, Final residual = 6.9618e-07, No Iterations 5
ExecutionTime = 11.16 s  ClockTime = 11 s

Time = 18

DILUPBiCG:  Solving for Ux, Initial residual = 0.00122025, Final residual = 1.79793e-09, No Iterations 8
DILUPBiCG:  Solving for Uy, Initial residual = 0.00213911, Final residual = 1.48823e-09, No Iterations 8
DILUPBiCG:  Solving for T, Initial residual = 0.0130817, Final residual = 9.56433e-07, No Iterations 375
GAMG:  Solving for p_rgh, Initial residual = 0.0660128, Final residual = 0.000638273, No Iterations 14
time step continuity errors : sum local = 0.0330016, global = -0.00194436, cumulative = -0.0579546
DILUPBiCG:  Solving for epsilon, Initial residual = 0.00974668, Final residual = 1.65584e-07, No Iterations 4
DILUPBiCG:  Solving for k, Initial residual = 0.0201244, Final residual = 7.88496e-07, No Iterations 5
ExecutionTime = 11.69 s  ClockTime = 12 s

Time = 19

DILUPBiCG:  Solving for Ux, Initial residual = 0.00122973, Final residual = 6.63516e-11, No Iterations 9
DILUPBiCG:  Solving for Uy, Initial residual = 0.0021607, Final residual = 2.56748e-09, No Iterations 7
DILUPBiCG:  Solving for T, Initial residual = 0.0129431, Final residual = 9.34947e-07, No Iterations 358
GAMG:  Solving for p_rgh, Initial residual = 0.0516972, Final residual = 0.000513438, No Iterations 14
time step continuity errors : sum local = 0.0272143, global = -0.00140463, cumulative = -0.0593592
DILUPBiCG:  Solving for epsilon, Initial residual = 0.00928197, Final residual = 1.73526e-07, No Iterations 4
DILUPBiCG:  Solving for k, Initial residual = 0.0190202, Final residual = 7.5919e-07, No Iterations 5
ExecutionTime = 12.36 s  ClockTime = 12 s

Time = 20

DILUPBiCG:  Solving for Ux, Initial residual = 0.00123144, Final residual = 6.05369e-09, No Iterations 7
DILUPBiCG:  Solving for Uy, Initial residual = 0.00213004, Final residual = 2.26905e-09, No Iterations 7
DILUPBiCG:  Solving for T, Initial residual = 0.0128469, Final residual = 8.18801e-07, No Iterations 354
GAMG:  Solving for p_rgh, Initial residual = 0.0484943, Final residual = 0.00043973, No Iterations 18
time step continuity errors : sum local = 0.0233202, global = -0.00127641, cumulative = -0.0606356
DILUPBiCG:  Solving for epsilon, Initial residual = 0.00885837, Final residual = 1.84973e-07, No Iterations 4
DILUPBiCG:  Solving for k, Initial residual = 0.0180335, Final residual = 6.85134e-07, No Iterations 5
ExecutionTime = 12.97 s  ClockTime = 13 s

Time = 21

DILUPBiCG:  Solving for Ux, Initial residual = 0.00119151, Final residual = 5.22239e-10, No Iterations 8
DILUPBiCG:  Solving for Uy, Initial residual = 0.00203141, Final residual = 2.17768e-09, No Iterations 7
DILUPBiCG:  Solving for T, Initial residual = 0.0127669, Final residual = 8.87648e-07, No Iterations 357
GAMG:  Solving for p_rgh, Initial residual = 0.0472185, Final residual = 0.000449243, No Iterations 16
time step continuity errors : sum local = 0.0235028, global = -0.00139174, cumulative = -0.0620273
DILUPBiCG:  Solving for epsilon, Initial residual = 0.00846718, Final residual = 1.64122e-07, No Iterations 4
DILUPBiCG:  Solving for k, Initial residual = 0.0171516, Final residual = 6.07324e-07, No Iterations 5
ExecutionTime = 13.91 s  ClockTime = 14 s

Time = 22

DILUPBiCG:  Solving for Ux, Initial residual = 0.00115523, Final residual = 3.70183e-09, No Iterations 7
DILUPBiCG:  Solving for Uy, Initial residual = 0.00204175, Final residual = 7.84674e-10, No Iterations 8
DILUPBiCG:  Solving for T, Initial residual = 0.0126361, Final residual = 6.63533e-07, No Iterations 365
GAMG:  Solving for p_rgh, Initial residual = 0.0399247, Final residual = 0.000381207, No Iterations 12
time step continuity errors : sum local = 0.0198582, global = 0.000119159, cumulative = -0.0619082
DILUPBiCG:  Solving for epsilon, Initial residual = 0.00820177, Final residual = 1.72041e-07, No Iterations 4
DILUPBiCG:  Solving for k, Initial residual = 0.0163914, Final residual = 5.33145e-07, No Iterations 5
ExecutionTime = 14.85 s  ClockTime = 15 s

Time = 23

DILUPBiCG:  Solving for Ux, Initial residual = 0.00114585, Final residual = 8.81649e-09, No Iterations 6
DILUPBiCG:  Solving for Uy, Initial residual = 0.00207048, Final residual = 2.48114e-09, No Iterations 7
DILUPBiCG:  Solving for T, Initial residual = 0.0124801, Final residual = 8.77689e-07, No Iterations 353
GAMG:  Solving for p_rgh, Initial residual = 0.0376726, Final residual = 0.000375046, No Iterations 14
time step continuity errors : sum local = 0.0197577, global = -0.00122795, cumulative = -0.0631361
DILUPBiCG:  Solving for epsilon, Initial residual = 0.00793638, Final residual = 1.71843e-07, No Iterations 4
DILUPBiCG:  Solving for k, Initial residual = 0.0156963, Final residual = 4.66551e-07, No Iterations 5
ExecutionTime = 15.53 s  ClockTime = 15 s

Time = 24

DILUPBiCG:  Solving for Ux, Initial residual = 0.0011561, Final residual = 8.03937e-09, No Iterations 6
DILUPBiCG:  Solving for Uy, Initial residual = 0.00208975, Final residual = 1.85265e-09, No Iterations 7
DILUPBiCG:  Solving for T, Initial residual = 0.0123495, Final residual = 9.1872e-07, No Iterations 363
GAMG:  Solving for p_rgh, Initial residual = 0.0331257, Final residual = 0.000302196, No Iterations 14
time step continuity errors : sum local = 0.0161711, global = -0.000890718, cumulative = -0.0640269
DILUPBiCG:  Solving for epsilon, Initial residual = 0.00761832, Final residual = 1.59705e-07, No Iterations 4
DILUPBiCG:  Solving for k, Initial residual = 0.0150444, Final residual = 4.18268e-07, No Iterations 5
ExecutionTime = 16.04 s  ClockTime = 16 s

Time = 25

DILUPBiCG:  Solving for Ux, Initial residual = 0.00116296, Final residual = 7.91132e-09, No Iterations 6
DILUPBiCG:  Solving for Uy, Initial residual = 0.00210166, Final residual = 1.71692e-09, No Iterations 7
DILUPBiCG:  Solving for T, Initial residual = 0.0122403, Final residual = 8.87602e-07, No Iterations 350
GAMG:  Solving for p_rgh, Initial residual = 0.0292175, Final residual = 0.000254888, No Iterations 12
time step continuity errors : sum local = 0.013757, global = -2.78646e-05, cumulative = -0.0640547
DILUPBiCG:  Solving for epsilon, Initial residual = 0.00730316, Final residual = 1.49797e-07, No Iterations 4
DILUPBiCG:  Solving for k, Initial residual = 0.0144305, Final residual = 3.88436e-07, No Iterations 5
ExecutionTime = 16.6 s  ClockTime = 17 s

Time = 26

DILUPBiCG:  Solving for Ux, Initial residual = 0.00115331, Final residual = 7.78352e-09, No Iterations 6
DILUPBiCG:  Solving for Uy, Initial residual = 0.00206664, Final residual = 1.36505e-09, No Iterations 7
DILUPBiCG:  Solving for T, Initial residual = 0.0121357, Final residual = 9.51228e-07, No Iterations 346
GAMG:  Solving for p_rgh, Initial residual = 0.0286996, Final residual = 0.000274475, No Iterations 13
time step continuity errors : sum local = 0.0148197, global = 0.000854518, cumulative = -0.0632002
DILUPBiCG:  Solving for epsilon, Initial residual = 0.00701688, Final residual = 1.42264e-07, No Iterations 4
DILUPBiCG:  Solving for k, Initial residual = 0.0139015, Final residual = 3.56077e-07, No Iterations 5
ExecutionTime = 17.13 s  ClockTime = 17 s

Time = 27

DILUPBiCG:  Solving for Ux, Initial residual = 0.00113341, Final residual = 7.87467e-09, No Iterations 6
DILUPBiCG:  Solving for Uy, Initial residual = 0.00204014, Final residual = 1.67531e-09, No Iterations 7
DILUPBiCG:  Solving for T, Initial residual = 0.0120254, Final residual = 9.55887e-07, No Iterations 350
GAMG:  Solving for p_rgh, Initial residual = 0.0265718, Final residual = 0.000210358, No Iterations 12
time step continuity errors : sum local = 0.0113534, global = -0.000516522, cumulative = -0.0637167
DILUPBiCG:  Solving for epsilon, Initial residual = 0.00683143, Final residual = 1.30779e-07, No Iterations 4
DILUPBiCG:  Solving for k, Initial residual = 0.013404, Final residual = 2.89127e-07, No Iterations 5
ExecutionTime = 17.69 s  ClockTime = 18 s

Time = 28

DILUPBiCG:  Solving for Ux, Initial residual = 0.00112078, Final residual = 8.42335e-09, No Iterations 6
DILUPBiCG:  Solving for Uy, Initial residual = 0.00205379, Final residual = 1.91886e-09, No Iterations 7
DILUPBiCG:  Solving for T, Initial residual = 0.0118973, Final residual = 4.89375e-07, No Iterations 360
GAMG:  Solving for p_rgh, Initial residual = 0.0244349, Final residual = 0.000214689, No Iterations 13
time step continuity errors : sum local = 0.0116489, global = -0.000816853, cumulative = -0.0645336
DILUPBiCG:  Solving for epsilon, Initial residual = 0.00666808, Final residual = 1.7302e-07, No Iterations 4
DILUPBiCG:  Solving for k, Initial residual = 0.0129434, Final residual = 2.23492e-07, No Iterations 5
ExecutionTime = 18.23 s  ClockTime = 18 s

Time = 29

DILUPBiCG:  Solving for Ux, Initial residual = 0.00112041, Final residual = 9.4191e-09, No Iterations 6
DILUPBiCG:  Solving for Uy, Initial residual = 0.00207845, Final residual = 2.0302e-09, No Iterations 7
DILUPBiCG:  Solving for T, Initial residual = 0.0117858, Final residual = 9.56849e-07, No Iterations 363
GAMG:  Solving for p_rgh, Initial residual = 0.0228657, Final residual = 0.00019921, No Iterations 13
time step continuity errors : sum local = 0.0109153, global = -0.000755552, cumulative = -0.0652891
DILUPBiCG:  Solving for epsilon, Initial residual = 0.00650144, Final residual = 2.13484e-07, No Iterations 4
DILUPBiCG:  Solving for k, Initial residual = 0.0125119, Final residual = 1.95847e-07, No Iterations 5
ExecutionTime = 18.81 s  ClockTime = 19 s

Time = 30

DILUPBiCG:  Solving for Ux, Initial residual = 0.0011239, Final residual = 1.97407e-09, No Iterations 7
DILUPBiCG:  Solving for Uy, Initial residual = 0.00209762, Final residual = 2.18536e-09, No Iterations 7
DILUPBiCG:  Solving for T, Initial residual = 0.0117145, Final residual = 8.79108e-07, No Iterations 350
GAMG:  Solving for p_rgh, Initial residual = 0.021142, Final residual = 0.000183766, No Iterations 14
time step continuity errors : sum local = 0.0101624, global = -0.000672379, cumulative = -0.0659615
DILUPBiCG:  Solving for epsilon, Initial residual = 0.00632587, Final residual = 2.03293e-07, No Iterations 4
DILUPBiCG:  Solving for k, Initial residual = 0.0121184, Final residual = 1.87363e-07, No Iterations 5
ExecutionTime = 19.32 s  ClockTime = 19 s

Time = 31

DILUPBiCG:  Solving for Ux, Initial residual = 0.00112449, Final residual = 2.15216e-09, No Iterations 7
DILUPBiCG:  Solving for Uy, Initial residual = 0.00209997, Final residual = 2.22488e-09, No Iterations 7
DILUPBiCG:  Solving for T, Initial residual = 0.0116609, Final residual = 7.83449e-07, No Iterations 360
GAMG:  Solving for p_rgh, Initial residual = 0.0200895, Final residual = 0.000181445, No Iterations 12
time step continuity errors : sum local = 0.0100901, global = -0.000630734, cumulative = -0.0665922
DILUPBiCG:  Solving for epsilon, Initial residual = 0.00615747, Final residual = 1.84972e-07, No Iterations 4
DILUPBiCG:  Solving for k, Initial residual = 0.0117683, Final residual = 1.83891e-07, No Iterations 5
ExecutionTime = 20.05 s  ClockTime = 20 s

Time = 32

DILUPBiCG:  Solving for Ux, Initial residual = 0.00111956, Final residual = 2.61043e-09, No Iterations 7
DILUPBiCG:  Solving for Uy, Initial residual = 0.0020903, Final residual = 2.1046e-09, No Iterations 7
DILUPBiCG:  Solving for T, Initial residual = 0.0116047, Final residual = 6.02577e-07, No Iterations 362
GAMG:  Solving for p_rgh, Initial residual = 0.0193931, Final residual = 0.000193399, No Iterations 11
time step continuity errors : sum local = 0.0107916, global = 0.000664697, cumulative = -0.0659275
DILUPBiCG:  Solving for epsilon, Initial residual = 0.00601011, Final residual = 1.67981e-07, No Iterations 4
DILUPBiCG:  Solving for k, Initial residual = 0.0114227, Final residual = 1.82027e-07, No Iterations 5
ExecutionTime = 20.63 s  ClockTime = 21 s

Time = 33

DILUPBiCG:  Solving for Ux, Initial residual = 0.00111177, Final residual = 3.96624e-09, No Iterations 8
DILUPBiCG:  Solving for Uy, Initial residual = 0.00208957, Final residual = 1.97509e-09, No Iterations 7
DILUPBiCG:  Solving for T, Initial residual = 0.0115399, Final residual = 9.98991e-07, No Iterations 359
GAMG:  Solving for p_rgh, Initial residual = 0.0184107, Final residual = 0.000172821, No Iterations 12
time step continuity errors : sum local = 0.00968605, global = -0.000704436, cumulative = -0.066632
DILUPBiCG:  Solving for epsilon, Initial residual = 0.00586852, Final residual = 1.53627e-07, No Iterations 4
DILUPBiCG:  Solving for k, Initial residual = 0.0110828, Final residual = 1.8395e-07, No Iterations 5
ExecutionTime = 21.62 s  ClockTime = 22 s

Time = 34

DILUPBiCG:  Solving for Ux, Initial residual = 0.00110735, Final residual = 2.0117e-09, No Iterations 7
DILUPBiCG:  Solving for Uy, Initial residual = 0.00209962, Final residual = 1.89119e-09, No Iterations 7
DILUPBiCG:  Solving for T, Initial residual = 0.0114677, Final residual = 7.43822e-07, No Iterations 383
GAMG:  Solving for p_rgh, Initial residual = 0.017723, Final residual = 0.00015529, No Iterations 11
time step continuity errors : sum local = 0.0087615, global = 0.000719087, cumulative = -0.0659129
DILUPBiCG:  Solving for epsilon, Initial residual = 0.00573638, Final residual = 1.44794e-07, No Iterations 4
DILUPBiCG:  Solving for k, Initial residual = 0.0107659, Final residual = 1.95508e-07, No Iterations 5
ExecutionTime = 22.71 s  ClockTime = 23 s

Time = 35

DILUPBiCG:  Solving for Ux, Initial residual = 0.00110721, Final residual = 1.62511e-09, No Iterations 7
DILUPBiCG:  Solving for Uy, Initial residual = 0.00211489, Final residual = 1.83769e-09, No Iterations 7
DILUPBiCG:  Solving for T, Initial residual = 0.0114106, Final residual = 5.71126e-07, No Iterations 381
GAMG:  Solving for p_rgh, Initial residual = 0.0170187, Final residual = 0.000153233, No Iterations 11
time step continuity errors : sum local = 0.00871412, global = 0.000683469, cumulative = -0.0652294
DILUPBiCG:  Solving for epsilon, Initial residual = 0.00560733, Final residual = 1.43392e-07, No Iterations 4
DILUPBiCG:  Solving for k, Initial residual = 0.0104884, Final residual = 2.11991e-07, No Iterations 5
ExecutionTime = 23.43 s  ClockTime = 23 s

Time = 36

DILUPBiCG:  Solving for Ux, Initial residual = 0.00110807, Final residual = 1.55338e-09, No Iterations 7
DILUPBiCG:  Solving for Uy, Initial residual = 0.00212631, Final residual = 1.806e-09, No Iterations 7
DILUPBiCG:  Solving for T, Initial residual = 0.0113611, Final residual = 4.13147e-07, No Iterations 386
GAMG:  Solving for p_rgh, Initial residual = 0.0163206, Final residual = 0.000155089, No Iterations 11
time step continuity errors : sum local = 0.00888241, global = 0.0007807, cumulative = -0.0644487
DILUPBiCG:  Solving for epsilon, Initial residual = 0.00550566, Final residual = 1.50576e-07, No Iterations 4
DILUPBiCG:  Solving for k, Initial residual = 0.0102449, Final residual = 2.29682e-07, No Iterations 5
ExecutionTime = 23.98 s  ClockTime = 24 s

Time = 37

DILUPBiCG:  Solving for Ux, Initial residual = 0.0011078, Final residual = 1.51459e-09, No Iterations 7
DILUPBiCG:  Solving for Uy, Initial residual = 0.00212979, Final residual = 1.80957e-09, No Iterations 7
DILUPBiCG:  Solving for T, Initial residual = 0.0113135, Final residual = 7.24599e-07, No Iterations 389
GAMG:  Solving for p_rgh, Initial residual = 0.0157694, Final residual = 0.000139629, No Iterations 11
time step continuity errors : sum local = 0.00804028, global = 0.000695061, cumulative = -0.0637537
DILUPBiCG:  Solving for epsilon, Initial residual = 0.00540335, Final residual = 1.70034e-07, No Iterations 4
DILUPBiCG:  Solving for k, Initial residual = 0.0100008, Final residual = 2.33742e-07, No Iterations 5
ExecutionTime = 24.58 s  ClockTime = 25 s

Time = 38

DILUPBiCG:  Solving for Ux, Initial residual = 0.00110516, Final residual = 1.48405e-09, No Iterations 7
DILUPBiCG:  Solving for Uy, Initial residual = 0.00213133, Final residual = 1.90792e-09, No Iterations 7
DILUPBiCG:  Solving for T, Initial residual = 0.0112607, Final residual = 6.8787e-07, No Iterations 407
GAMG:  Solving for p_rgh, Initial residual = 0.0152893, Final residual = 0.000143053, No Iterations 11
time step continuity errors : sum local = 0.00827852, global = 0.000678489, cumulative = -0.0630752
DILUPBiCG:  Solving for epsilon, Initial residual = 0.00529997, Final residual = 1.94557e-07, No Iterations 4
DILUPBiCG:  Solving for k, Initial residual = 0.00975321, Final residual = 2.23413e-07, No Iterations 5
ExecutionTime = 25.23 s  ClockTime = 25 s

Time = 39

DILUPBiCG:  Solving for Ux, Initial residual = 0.00110153, Final residual = 1.48374e-09, No Iterations 7
DILUPBiCG:  Solving for Uy, Initial residual = 0.00213635, Final residual = 2.26644e-09, No Iterations 7
DILUPBiCG:  Solving for T, Initial residual = 0.0111998, Final residual = 5.66668e-07, No Iterations 416
GAMG:  Solving for p_rgh, Initial residual = 0.0148674, Final residual = 0.000138803, No Iterations 11
time step continuity errors : sum local = 0.00807668, global = 0.000730774, cumulative = -0.0623444
DILUPBiCG:  Solving for epsilon, Initial residual = 0.00519664, Final residual = 2.13551e-07, No Iterations 4
DILUPBiCG:  Solving for k, Initial residual = 0.00951337, Final residual = 2.07243e-07, No Iterations 5
ExecutionTime = 25.79 s  ClockTime = 26 s

Time = 40

DILUPBiCG:  Solving for Ux, Initial residual = 0.00109926, Final residual = 1.51521e-09, No Iterations 7
DILUPBiCG:  Solving for Uy, Initial residual = 0.00214416, Final residual = 3.86695e-09, No Iterations 7
DILUPBiCG:  Solving for T, Initial residual = 0.0111402, Final residual = 8.05291e-07, No Iterations 406
GAMG:  Solving for p_rgh, Initial residual = 0.0145184, Final residual = 0.00013632, No Iterations 11
time step continuity errors : sum local = 0.00798167, global = 0.000786241, cumulative = -0.0615582
DILUPBiCG:  Solving for epsilon, Initial residual = 0.00510354, Final residual = 2.12421e-07, No Iterations 4
DILUPBiCG:  Solving for k, Initial residual = 0.00928483, Final residual = 1.90798e-07, No Iterations 5
ExecutionTime = 26.47 s  ClockTime = 26 s

Time = 41

DILUPBiCG:  Solving for Ux, Initial residual = 0.00109848, Final residual = 1.552e-09, No Iterations 7
DILUPBiCG:  Solving for Uy, Initial residual = 0.00215304, Final residual = 6.01798e-09, No Iterations 8
DILUPBiCG:  Solving for T, Initial residual = 0.0110862, Final residual = 9.91e-07, No Iterations 431
GAMG:  Solving for p_rgh, Initial residual = 0.0141974, Final residual = 0.000141193, No Iterations 11
time step continuity errors : sum local = 0.00832077, global = 0.00087164, cumulative = -0.0606865
DILUPBiCG:  Solving for epsilon, Initial residual = 0.00502696, Final residual = 1.87809e-07, No Iterations 4
DILUPBiCG:  Solving for k, Initial residual = 0.00909809, Final residual = 1.77154e-07, No Iterations 5
ExecutionTime = 27.09 s  ClockTime = 27 s

Time = 42

DILUPBiCG:  Solving for Ux, Initial residual = 0.00109843, Final residual = 1.57809e-09, No Iterations 7
DILUPBiCG:  Solving for Uy, Initial residual = 0.00216013, Final residual = 3.63825e-09, No Iterations 7
DILUPBiCG:  Solving for T, Initial residual = 0.0110387, Final residual = 6.17742e-07, No Iterations 442
GAMG:  Solving for p_rgh, Initial residual = 0.0139039, Final residual = 0.000134382, No Iterations 10
time step continuity errors : sum local = 0.0079681, global = -0.000814992, cumulative = -0.0615015
DILUPBiCG:  Solving for epsilon, Initial residual = 0.00495849, Final residual = 1.50902e-07, No Iterations 4
DILUPBiCG:  Solving for k, Initial residual = 0.00891967, Final residual = 1.66882e-07, No Iterations 5
ExecutionTime = 27.74 s  ClockTime = 28 s

Time = 43

DILUPBiCG:  Solving for Ux, Initial residual = 0.00109921, Final residual = 1.59141e-09, No Iterations 7
DILUPBiCG:  Solving for Uy, Initial residual = 0.0021655, Final residual = 2.14619e-09, No Iterations 7
DILUPBiCG:  Solving for T, Initial residual = 0.0109945, Final residual = 8.48792e-07, No Iterations 451
GAMG:  Solving for p_rgh, Initial residual = 0.0136115, Final residual = 0.000114619, No Iterations 11
time step continuity errors : sum local = 0.00683476, global = 0.000736266, cumulative = -0.0607652
DILUPBiCG:  Solving for epsilon, Initial residual = 0.00489443, Final residual = 1.20233e-07, No Iterations 4
DILUPBiCG:  Solving for k, Initial residual = 0.0087334, Final residual = 1.58829e-07, No Iterations 5
ExecutionTime = 28.4 s  ClockTime = 28 s

Time = 44

DILUPBiCG:  Solving for Ux, Initial residual = 0.00109926, Final residual = 1.60482e-09, No Iterations 7
DILUPBiCG:  Solving for Uy, Initial residual = 0.00217086, Final residual = 1.9638e-09, No Iterations 7
DILUPBiCG:  Solving for T, Initial residual = 0.0109509, Final residual = 7.33839e-07, No Iterations 474
GAMG:  Solving for p_rgh, Initial residual = 0.0133948, Final residual = 0.00011946, No Iterations 11
time step continuity errors : sum local = 0.00716258, global = 0.00080941, cumulative = -0.0599558
DILUPBiCG:  Solving for epsilon, Initial residual = 0.00482457, Final residual = 1.68279e-07, No Iterations 4
DILUPBiCG:  Solving for k, Initial residual = 0.00854414, Final residual = 1.50819e-07, No Iterations 5
ExecutionTime = 29.05 s  ClockTime = 29 s

Time = 45

DILUPBiCG:  Solving for Ux, Initial residual = 0.00109874, Final residual = 1.63068e-09, No Iterations 7
DILUPBiCG:  Solving for Uy, Initial residual = 0.00217709, Final residual = 2.50413e-09, No Iterations 7
DILUPBiCG:  Solving for T, Initial residual = 0.0109055, Final residual = 5.67436e-07, No Iterations 471
GAMG:  Solving for p_rgh, Initial residual = 0.0132378, Final residual = 0.000119689, No Iterations 11
time step continuity errors : sum local = 0.00721667, global = 0.000788018, cumulative = -0.0591678
DILUPBiCG:  Solving for epsilon, Initial residual = 0.00475705, Final residual = 3.60763e-07, No Iterations 4
DILUPBiCG:  Solving for k, Initial residual = 0.00835848, Final residual = 1.46479e-07, No Iterations 5
ExecutionTime = 29.77 s  ClockTime = 30 s

Time = 46

DILUPBiCG:  Solving for Ux, Initial residual = 0.00109819, Final residual = 1.66327e-09, No Iterations 7
DILUPBiCG:  Solving for Uy, Initial residual = 0.00218339, Final residual = 3.41471e-09, No Iterations 7
DILUPBiCG:  Solving for T, Initial residual = 0.0108602, Final residual = 6.1867e-07, No Iterations 497
GAMG:  Solving for p_rgh, Initial residual = 0.0131055, Final residual = 0.000122338, No Iterations 10
time step continuity errors : sum local = 0.00741918, global = -0.000778604, cumulative = -0.0599464
DILUPBiCG:  Solving for epsilon, Initial residual = 0.00468928, Final residual = 1.54821e-08, No Iterations 5
DILUPBiCG:  Solving for k, Initial residual = 0.00821474, Final residual = 1.50819e-07, No Iterations 5
ExecutionTime = 30.46 s  ClockTime = 30 s

Time = 47

DILUPBiCG:  Solving for Ux, Initial residual = 0.0010979, Final residual = 1.69426e-09, No Iterations 7
DILUPBiCG:  Solving for Uy, Initial residual = 0.0021895, Final residual = 4.74693e-09, No Iterations 7
DILUPBiCG:  Solving for T, Initial residual = 0.0108181, Final residual = 5.71048e-07, No Iterations 496
GAMG:  Solving for p_rgh, Initial residual = 0.0129547, Final residual = 0.000125875, No Iterations 10
time step continuity errors : sum local = 0.00767779, global = -0.000899603, cumulative = -0.060846
DILUPBiCG:  Solving for epsilon, Initial residual = 0.00462916, Final residual = 1.70015e-08, No Iterations 5
DILUPBiCG:  Solving for k, Initial residual = 0.00808381, Final residual = 1.64118e-07, No Iterations 5
ExecutionTime = 31.35 s  ClockTime = 31 s

Time = 48

DILUPBiCG:  Solving for Ux, Initial residual = 0.00109748, Final residual = 1.71959e-09, No Iterations 7
DILUPBiCG:  Solving for Uy, Initial residual = 0.00219503, Final residual = 6.3992e-09, No Iterations 7
DILUPBiCG:  Solving for T, Initial residual = 0.0107754, Final residual = 8.14809e-07, No Iterations 442
GAMG:  Solving for p_rgh, Initial residual = 0.0128068, Final residual = 0.000117615, No Iterations 11
time step continuity errors : sum local = 0.0072144, global = 0.000832781, cumulative = -0.0600132
DILUPBiCG:  Solving for epsilon, Initial residual = 0.00456811, Final residual = 5.12137e-07, No Iterations 4
DILUPBiCG:  Solving for k, Initial residual = 0.00794913, Final residual = 1.79133e-07, No Iterations 5
ExecutionTime = 32.05 s  ClockTime = 32 s

Time = 49

DILUPBiCG:  Solving for Ux, Initial residual = 0.0010979, Final residual = 1.73979e-09, No Iterations 7
DILUPBiCG:  Solving for Uy, Initial residual = 0.0022012, Final residual = 7.97312e-09, No Iterations 7
DILUPBiCG:  Solving for T, Initial residual = 0.0107359, Final residual = 9.35907e-07, No Iterations 426
GAMG:  Solving for p_rgh, Initial residual = 0.0126729, Final residual = 0.000115232, No Iterations 11
time step continuity errors : sum local = 0.00710686, global = 0.000873329, cumulative = -0.0591399
DILUPBiCG:  Solving for epsilon, Initial residual = 0.00450581, Final residual = 2.98702e-07, No Iterations 4
DILUPBiCG:  Solving for k, Initial residual = 0.00780321, Final residual = 1.89231e-07, No Iterations 5
ExecutionTime = 32.62 s  ClockTime = 33 s

Time = 50

DILUPBiCG:  Solving for Ux, Initial residual = 0.00109857, Final residual = 1.76658e-09, No Iterations 7
DILUPBiCG:  Solving for Uy, Initial residual = 0.00220716, Final residual = 9.99999e-09, No Iterations 7
DILUPBiCG:  Solving for T, Initial residual = 0.0106922, Final residual = 6.42827e-07, No Iterations 488
GAMG:  Solving for p_rgh, Initial residual = 0.0125665, Final residual = 0.000118283, No Iterations 10
time step continuity errors : sum local = 0.00733332, global = -0.00090271, cumulative = -0.0600426
DILUPBiCG:  Solving for epsilon, Initial residual = 0.00445127, Final residual = 2.02352e-07, No Iterations 4
DILUPBiCG:  Solving for k, Initial residual = 0.00765419, Final residual = 1.95235e-07, No Iterations 5
ExecutionTime = 33.36 s  ClockTime = 33 s

Time = 51

DILUPBiCG:  Solving for Ux, Initial residual = 0.00109906, Final residual = 1.80371e-09, No Iterations 7
DILUPBiCG:  Solving for Uy, Initial residual = 0.00221268, Final residual = 5.31504e-10, No Iterations 8
DILUPBiCG:  Solving for T, Initial residual = 0.0106496, Final residual = 9.75649e-07, No Iterations 419
GAMG:  Solving for p_rgh, Initial residual = 0.0124727, Final residual = 0.000104398, No Iterations 10
time step continuity errors : sum local = 0.00650596, global = -0.000722314, cumulative = -0.0607649
DILUPBiCG:  Solving for epsilon, Initial residual = 0.00441042, Final residual = 1.4249e-07, No Iterations 4
DILUPBiCG:  Solving for k, Initial residual = 0.00751657, Final residual = 1.97841e-07, No Iterations 5
ExecutionTime = 33.94 s  ClockTime = 34 s

Time = 52

DILUPBiCG:  Solving for Ux, Initial residual = 0.00109903, Final residual = 1.84591e-09, No Iterations 7
DILUPBiCG:  Solving for Uy, Initial residual = 0.00221824, Final residual = 5.52858e-10, No Iterations 8
DILUPBiCG:  Solving for T, Initial residual = 0.0106069, Final residual = 9.51777e-07, No Iterations 445
GAMG:  Solving for p_rgh, Initial residual = 0.0124012, Final residual = 0.000114371, No Iterations 10
time step continuity errors : sum local = 0.00716357, global = -0.000848253, cumulative = -0.0616132
DILUPBiCG:  Solving for epsilon, Initial residual = 0.00437696, Final residual = 1.07616e-07, No Iterations 4
DILUPBiCG:  Solving for k, Initial residual = 0.00740787, Final residual = 1.96138e-07, No Iterations 5
ExecutionTime = 34.57 s  ClockTime = 35 s

Time = 53

DILUPBiCG:  Solving for Ux, Initial residual = 0.00109856, Final residual = 1.89055e-09, No Iterations 7
DILUPBiCG:  Solving for Uy, Initial residual = 0.00222224, Final residual = 5.83008e-10, No Iterations 8
DILUPBiCG:  Solving for T, Initial residual = 0.010564, Final residual = 9.5535e-07, No Iterations 488
GAMG:  Solving for p_rgh, Initial residual = 0.0123178, Final residual = 0.000111352, No Iterations 11
time step continuity errors : sum local = 0.00700871, global = 0.000821134, cumulative = -0.0607921
DILUPBiCG:  Solving for epsilon, Initial residual = 0.00434961, Final residual = 1.08017e-07, No Iterations 4
DILUPBiCG:  Solving for k, Initial residual = 0.00730394, Final residual = 1.88804e-07, No Iterations 5
ExecutionTime = 35.24 s  ClockTime = 35 s

Time = 54

DILUPBiCG:  Solving for Ux, Initial residual = 0.00109798, Final residual = 1.93745e-09, No Iterations 7
DILUPBiCG:  Solving for Uy, Initial residual = 0.00222643, Final residual = 6.29036e-10, No Iterations 8
DILUPBiCG:  Solving for T, Initial residual = 0.0105209, Final residual = 5.76882e-07, No Iterations 492
GAMG:  Solving for p_rgh, Initial residual = 0.0122534, Final residual = 0.00011227, No Iterations 11
time step continuity errors : sum local = 0.00710069, global = 0.000843682, cumulative = -0.0599484
DILUPBiCG:  Solving for epsilon, Initial residual = 0.0043231, Final residual = 1.28714e-07, No Iterations 4
DILUPBiCG:  Solving for k, Initial residual = 0.00719457, Final residual = 1.77876e-07, No Iterations 5
ExecutionTime = 35.84 s  ClockTime = 36 s

Time = 55

DILUPBiCG:  Solving for Ux, Initial residual = 0.00109761, Final residual = 1.98809e-09, No Iterations 7
DILUPBiCG:  Solving for Uy, Initial residual = 0.00223109, Final residual = 6.93185e-10, No Iterations 8
DILUPBiCG:  Solving for T, Initial residual = 0.0104771, Final residual = 7.46183e-07, No Iterations 485
GAMG:  Solving for p_rgh, Initial residual = 0.0121791, Final residual = 0.0001017, No Iterations 10
time step continuity errors : sum local = 0.00646288, global = -0.000645311, cumulative = -0.0605937
DILUPBiCG:  Solving for epsilon, Initial residual = 0.00429397, Final residual = 1.73803e-07, No Iterations 4
DILUPBiCG:  Solving for k, Initial residual = 0.00707333, Final residual = 1.68543e-07, No Iterations 5
ExecutionTime = 36.57 s  ClockTime = 37 s

Time = 56

DILUPBiCG:  Solving for Ux, Initial residual = 0.00109852, Final residual = 2.0466e-09, No Iterations 7
DILUPBiCG:  Solving for Uy, Initial residual = 0.00223626, Final residual = 7.76856e-10, No Iterations 8
DILUPBiCG:  Solving for T, Initial residual = 0.0104327, Final residual = 6.30537e-07, No Iterations 503
GAMG:  Solving for p_rgh, Initial residual = 0.0121002, Final residual = 0.000118194, No Iterations 10
time step continuity errors : sum local = 0.00754644, global = 0.000943858, cumulative = -0.0596498
DILUPBiCG:  Solving for epsilon, Initial residual = 0.00425918, Final residual = 2.51607e-07, No Iterations 4
DILUPBiCG:  Solving for k, Initial residual = 0.00694101, Final residual = 1.62456e-07, No Iterations 5
ExecutionTime = 37.26 s  ClockTime = 37 s

Time = 57

DILUPBiCG:  Solving for Ux, Initial residual = 0.00109967, Final residual = 2.11987e-09, No Iterations 7
DILUPBiCG:  Solving for Uy, Initial residual = 0.00224023, Final residual = 8.74418e-10, No Iterations 8
DILUPBiCG:  Solving for T, Initial residual = 0.0103889, Final residual = 5.88809e-07, No Iterations 496
GAMG:  Solving for p_rgh, Initial residual = 0.0120334, Final residual = 0.000103756, No Iterations 11
time step continuity errors : sum local = 0.00665478, global = -0.000796613, cumulative = -0.0604464
DILUPBiCG:  Solving for epsilon, Initial residual = 0.0042209, Final residual = 3.84983e-07, No Iterations 4
DILUPBiCG:  Solving for k, Initial residual = 0.00681832, Final residual = 1.59562e-07, No Iterations 5
ExecutionTime = 37.89 s  ClockTime = 38 s

Time = 58

DILUPBiCG:  Solving for Ux, Initial residual = 0.00110079, Final residual = 2.19769e-09, No Iterations 7
DILUPBiCG:  Solving for Uy, Initial residual = 0.00224476, Final residual = 9.87442e-10, No Iterations 8
DILUPBiCG:  Solving for T, Initial residual = 0.0103435, Final residual = 6.47307e-07, No Iterations 503
GAMG:  Solving for p_rgh, Initial residual = 0.0119801, Final residual = 0.000103067, No Iterations 11
time step continuity errors : sum local = 0.00663967, global = -0.00079419, cumulative = -0.0612406
DILUPBiCG:  Solving for epsilon, Initial residual = 0.00417893, Final residual = 6.70033e-07, No Iterations 4
DILUPBiCG:  Solving for k, Initial residual = 0.00673473, Final residual = 1.58592e-07, No Iterations 5
ExecutionTime = 38.6 s  ClockTime = 39 s

Time = 59

DILUPBiCG:  Solving for Ux, Initial residual = 0.00110141, Final residual = 2.28169e-09, No Iterations 7
DILUPBiCG:  Solving for Uy, Initial residual = 0.00224868, Final residual = 1.09787e-09, No Iterations 8
DILUPBiCG:  Solving for T, Initial residual = 0.0102973, Final residual = 4.25883e-07, No Iterations 502
GAMG:  Solving for p_rgh, Initial residual = 0.0119341, Final residual = 0.000117326, No Iterations 10
time step continuity errors : sum local = 0.00759051, global = 0.000943247, cumulative = -0.0602974
DILUPBiCG:  Solving for epsilon, Initial residual = 0.00413589, Final residual = 1.21941e-08, No Iterations 5
DILUPBiCG:  Solving for k, Initial residual = 0.00665997, Final residual = 1.57211e-07, No Iterations 5
ExecutionTime = 39.24 s  ClockTime = 40 s

Time = 60

DILUPBiCG:  Solving for Ux, Initial residual = 0.00110143, Final residual = 2.37241e-09, No Iterations 7
DILUPBiCG:  Solving for Uy, Initial residual = 0.00225231, Final residual = 1.19534e-09, No Iterations 8
DILUPBiCG:  Solving for T, Initial residual = 0.0102516, Final residual = 8.64918e-07, No Iterations 509
GAMG:  Solving for p_rgh, Initial residual = 0.0119525, Final residual = 0.000100513, No Iterations 11
time step continuity errors : sum local = 0.00652959, global = -0.000740271, cumulative = -0.0610377
DILUPBiCG:  Solving for epsilon, Initial residual = 0.00409264, Final residual = 1.11818e-08, No Iterations 5
DILUPBiCG:  Solving for k, Initial residual = 0.00658235, Final residual = 1.54277e-07, No Iterations 5
ExecutionTime = 39.93 s  ClockTime = 40 s

Time = 61

DILUPBiCG:  Solving for Ux, Initial residual = 0.00110137, Final residual = 2.46908e-09, No Iterations 7
DILUPBiCG:  Solving for Uy, Initial residual = 0.00225671, Final residual = 1.2985e-09, No Iterations 8
DILUPBiCG:  Solving for T, Initial residual = 0.0102012, Final residual = 7.14275e-07, No Iterations 517
GAMG:  Solving for p_rgh, Initial residual = 0.0119376, Final residual = 0.000119187, No Iterations 10
time step continuity errors : sum local = 0.00777456, global = 0.000942577, cumulative = -0.0600951
DILUPBiCG:  Solving for epsilon, Initial residual = 0.00405241, Final residual = 1.05296e-08, No Iterations 5
DILUPBiCG:  Solving for k, Initial residual = 0.00650213, Final residual = 1.50731e-07, No Iterations 5
ExecutionTime = 40.68 s  ClockTime = 41 s

Time = 62

DILUPBiCG:  Solving for Ux, Initial residual = 0.00110155, Final residual = 2.57941e-09, No Iterations 7
DILUPBiCG:  Solving for Uy, Initial residual = 0.0022608, Final residual = 1.41602e-09, No Iterations 8
DILUPBiCG:  Solving for T, Initial residual = 0.0101528, Final residual = 4.65392e-07, No Iterations 495
GAMG:  Solving for p_rgh, Initial residual = 0.0118794, Final residual = 0.000105262, No Iterations 11
time step continuity errors : sum local = 0.00689363, global = -0.000796949, cumulative = -0.060892
DILUPBiCG:  Solving for epsilon, Initial residual = 0.00401437, Final residual = 6.56979e-07, No Iterations 4
DILUPBiCG:  Solving for k, Initial residual = 0.00640969, Final residual = 1.47683e-07, No Iterations 5
ExecutionTime = 41.35 s  ClockTime = 42 s

Time = 63

DILUPBiCG:  Solving for Ux, Initial residual = 0.00110284, Final residual = 2.70253e-09, No Iterations 7
DILUPBiCG:  Solving for Uy, Initial residual = 0.00226475, Final residual = 1.5594e-09, No Iterations 8
DILUPBiCG:  Solving for T, Initial residual = 0.0101182, Final residual = 8.8411e-07, No Iterations 510
GAMG:  Solving for p_rgh, Initial residual = 0.0118256, Final residual = 0.000106144, No Iterations 11
time step continuity errors : sum local = 0.00697877, global = -0.000819062, cumulative = -0.0617111
DILUPBiCG:  Solving for epsilon, Initial residual = 0.00398159, Final residual = 4.81422e-07, No Iterations 4
DILUPBiCG:  Solving for k, Initial residual = 0.00631014, Final residual = 1.45132e-07, No Iterations 5
ExecutionTime = 42.09 s  ClockTime = 43 s

Time = 64

DILUPBiCG:  Solving for Ux, Initial residual = 0.0011042, Final residual = 2.83576e-09, No Iterations 7
DILUPBiCG:  Solving for Uy, Initial residual = 0.00226802, Final residual = 1.72164e-09, No Iterations 8
DILUPBiCG:  Solving for T, Initial residual = 0.0100948, Final residual = 5.67508e-07, No Iterations 513
GAMG:  Solving for p_rgh, Initial residual = 0.0117935, Final residual = 0.000117067, No Iterations 10
time step continuity errors : sum local = 0.00772552, global = 0.000940425, cumulative = -0.0607707
DILUPBiCG:  Solving for epsilon, Initial residual = 0.00396224, Final residual = 3.83585e-07, No Iterations 4
DILUPBiCG:  Solving for k, Initial residual = 0.00623564, Final residual = 1.43001e-07, No Iterations 5
ExecutionTime = 42.87 s  ClockTime = 43 s

Time = 65

DILUPBiCG:  Solving for Ux, Initial residual = 0.0011051, Final residual = 2.97706e-09, No Iterations 7
DILUPBiCG:  Solving for Uy, Initial residual = 0.00227105, Final residual = 1.8286e-09, No Iterations 8
DILUPBiCG:  Solving for T, Initial residual = 0.0100767, Final residual = 8.75838e-07, No Iterations 493
GAMG:  Solving for p_rgh, Initial residual = 0.0118024, Final residual = 0.000102376, No Iterations 11
time step continuity errors : sum local = 0.00678032, global = -0.000775423, cumulative = -0.0615461
DILUPBiCG:  Solving for epsilon, Initial residual = 0.00394411, Final residual = 9.94587e-07, No Iterations 3
DILUPBiCG:  Solving for k, Initial residual = 0.00617329, Final residual = 1.39341e-07, No Iterations 5
ExecutionTime = 43.47 s  ClockTime = 44 s

Time = 66

DILUPBiCG:  Solving for Ux, Initial residual = 0.0011054, Final residual = 3.1265e-09, No Iterations 7
DILUPBiCG:  Solving for Uy, Initial residual = 0.0022745, Final residual = 1.85456e-09, No Iterations 8
DILUPBiCG:  Solving for T, Initial residual = 0.010063, Final residual = 7.90223e-07, No Iterations 518
GAMG:  Solving for p_rgh, Initial residual = 0.0118541, Final residual = 0.000102256, No Iterations 11
time step continuity errors : sum local = 0.00679596, global = -0.000782141, cumulative = -0.0623282
DILUPBiCG:  Solving for epsilon, Initial residual = 0.00392841, Final residual = 9.59143e-07, No Iterations 3
DILUPBiCG:  Solving for k, Initial residual = 0.00611387, Final residual = 1.3218e-07, No Iterations 5
ExecutionTime = 44.23 s  ClockTime = 45 s

Time = 67

DILUPBiCG:  Solving for Ux, Initial residual = 0.00110521, Final residual = 3.29053e-09, No Iterations 7
DILUPBiCG:  Solving for Uy, Initial residual = 0.00227783, Final residual = 1.82961e-09, No Iterations 8
DILUPBiCG:  Solving for T, Initial residual = 0.010052, Final residual = 5.42132e-07, No Iterations 521
GAMG:  Solving for p_rgh, Initial residual = 0.0118684, Final residual = 0.000116504, No Iterations 10
time step continuity errors : sum local = 0.00776884, global = 0.000906214, cumulative = -0.061422
DILUPBiCG:  Solving for epsilon, Initial residual = 0.00391328, Final residual = 9.25076e-07, No Iterations 3
DILUPBiCG:  Solving for k, Initial residual = 0.00604393, Final residual = 1.23419e-07, No Iterations 5
ExecutionTime = 44.99 s  ClockTime = 46 s

Time = 68

DILUPBiCG:  Solving for Ux, Initial residual = 0.00110478, Final residual = 3.46651e-09, No Iterations 7
DILUPBiCG:  Solving for Uy, Initial residual = 0.00228096, Final residual = 1.65839e-09, No Iterations 8
DILUPBiCG:  Solving for T, Initial residual = 0.0100412, Final residual = 9.72751e-07, No Iterations 506
GAMG:  Solving for p_rgh, Initial residual = 0.0118053, Final residual = 0.000107233, No Iterations 11
time step continuity errors : sum local = 0.00717422, global = -0.000805563, cumulative = -0.0622276
DILUPBiCG:  Solving for epsilon, Initial residual = 0.00389574, Final residual = 8.97148e-07, No Iterations 3
DILUPBiCG:  Solving for k, Initial residual = 0.00595921, Final residual = 1.19056e-07, No Iterations 5
ExecutionTime = 45.59 s  ClockTime = 46 s

Time = 69

DILUPBiCG:  Solving for Ux, Initial residual = 0.0011049, Final residual = 3.65234e-09, No Iterations 7
DILUPBiCG:  Solving for Uy, Initial residual = 0.00228424, Final residual = 1.05394e-09, No Iterations 8
DILUPBiCG:  Solving for T, Initial residual = 0.0100295, Final residual = 5.0313e-07, No Iterations 501
GAMG:  Solving for p_rgh, Initial residual = 0.0117094, Final residual = 0.000107835, No Iterations 11
time step continuity errors : sum local = 0.00723783, global = -0.000816099, cumulative = -0.0630437
DILUPBiCG:  Solving for epsilon, Initial residual = 0.00387623, Final residual = 8.80096e-07, No Iterations 3
DILUPBiCG:  Solving for k, Initial residual = 0.00586071, Final residual = 1.18336e-07, No Iterations 5
ExecutionTime = 46.3 s  ClockTime = 47 s

Time = 70

DILUPBiCG:  Solving for Ux, Initial residual = 0.00110598, Final residual = 3.8385e-09, No Iterations 7
DILUPBiCG:  Solving for Uy, Initial residual = 0.00228677, Final residual = 1.01483e-09, No Iterations 8
DILUPBiCG:  Solving for T, Initial residual = 0.0100167, Final residual = 6.07839e-07, No Iterations 496
GAMG:  Solving for p_rgh, Initial residual = 0.0116196, Final residual = 0.000116162, No Iterations 10
time step continuity errors : sum local = 0.00782077, global = 0.000901669, cumulative = -0.062142
DILUPBiCG:  Solving for epsilon, Initial residual = 0.00385242, Final residual = 8.7148e-07, No Iterations 3
DILUPBiCG:  Solving for k, Initial residual = 0.00576988, Final residual = 1.18447e-07, No Iterations 5
ExecutionTime = 47.06 s  ClockTime = 48 s

Time = 71

DILUPBiCG:  Solving for Ux, Initial residual = 0.00110714, Final residual = 4.03114e-09, No Iterations 7
DILUPBiCG:  Solving for Uy, Initial residual = 0.00228842, Final residual = 2.86799e-09, No Iterations 8
DILUPBiCG:  Solving for T, Initial residual = 0.0100023, Final residual = 8.54223e-07, No Iterations 517
GAMG:  Solving for p_rgh, Initial residual = 0.0116303, Final residual = 0.000104997, No Iterations 11
time step continuity errors : sum local = 0.00708953, global = -0.000775356, cumulative = -0.0629174
DILUPBiCG:  Solving for epsilon, Initial residual = 0.00382518, Final residual = 8.67493e-07, No Iterations 3
DILUPBiCG:  Solving for k, Initial residual = 0.00569875, Final residual = 1.18667e-07, No Iterations 5
ExecutionTime = 47.69 s  ClockTime = 48 s

Time = 72

DILUPBiCG:  Solving for Ux, Initial residual = 0.0011078, Final residual = 4.22889e-09, No Iterations 7
DILUPBiCG:  Solving for Uy, Initial residual = 0.00229006, Final residual = 4.84762e-09, No Iterations 8
DILUPBiCG:  Solving for T, Initial residual = 0.00998579, Final residual = 9.60216e-07, No Iterations 494
GAMG:  Solving for p_rgh, Initial residual = 0.0116729, Final residual = 0.000105045, No Iterations 11
time step continuity errors : sum local = 0.00711239, global = -0.000781994, cumulative = -0.0636994
DILUPBiCG:  Solving for epsilon, Initial residual = 0.0037994, Final residual = 8.70081e-07, No Iterations 3
DILUPBiCG:  Solving for k, Initial residual = 0.00565472, Final residual = 1.19375e-07, No Iterations 5
ExecutionTime = 48.42 s  ClockTime = 49 s

Time = 73

DILUPBiCG:  Solving for Ux, Initial residual = 0.00110794, Final residual = 4.44196e-09, No Iterations 7
DILUPBiCG:  Solving for Uy, Initial residual = 0.00229269, Final residual = 5.48931e-09, No Iterations 8
DILUPBiCG:  Solving for T, Initial residual = 0.00996752, Final residual = 6.87328e-07, No Iterations 501
GAMG:  Solving for p_rgh, Initial residual = 0.0117074, Final residual = 0.000115345, No Iterations 10
time step continuity errors : sum local = 0.0078305, global = 0.000896062, cumulative = -0.0628033
DILUPBiCG:  Solving for epsilon, Initial residual = 0.00377662, Final residual = 8.77478e-07, No Iterations 3
DILUPBiCG:  Solving for k, Initial residual = 0.00560988, Final residual = 1.2078e-07, No Iterations 5
ExecutionTime = 49.19 s  ClockTime = 50 s

Time = 74

DILUPBiCG:  Solving for Ux, Initial residual = 0.00110779, Final residual = 4.66618e-09, No Iterations 7
DILUPBiCG:  Solving for Uy, Initial residual = 0.00229516, Final residual = 4.52342e-09, No Iterations 8
DILUPBiCG:  Solving for T, Initial residual = 0.00994736, Final residual = 6.53272e-07, No Iterations 502
GAMG:  Solving for p_rgh, Initial residual = 0.011692, Final residual = 0.00010474, No Iterations 11
time step continuity errors : sum local = 0.0071288, global = -0.000786592, cumulative = -0.0635899
DILUPBiCG:  Solving for epsilon, Initial residual = 0.00375385, Final residual = 8.85042e-07, No Iterations 3
DILUPBiCG:  Solving for k, Initial residual = 0.00555584, Final residual = 1.21051e-07, No Iterations 5
ExecutionTime = 49.87 s  ClockTime = 50 s

Time = 75

DILUPBiCG:  Solving for Ux, Initial residual = 0.00110779, Final residual = 4.89787e-09, No Iterations 7
DILUPBiCG:  Solving for Uy, Initial residual = 0.00229811, Final residual = 3.60626e-09, No Iterations 8
DILUPBiCG:  Solving for T, Initial residual = 0.0099242, Final residual = 9.31431e-07, No Iterations 500
GAMG:  Solving for p_rgh, Initial residual = 0.01163, Final residual = 0.000108931, No Iterations 11
time step continuity errors : sum local = 0.00743277, global = -0.000815634, cumulative = -0.0644055
DILUPBiCG:  Solving for epsilon, Initial residual = 0.00372865, Final residual = 8.89223e-07, No Iterations 3
DILUPBiCG:  Solving for k, Initial residual = 0.00549283, Final residual = 1.18943e-07, No Iterations 5
ExecutionTime = 50.57 s  ClockTime = 51 s

Time = 76

DILUPBiCG:  Solving for Ux, Initial residual = 0.00110819, Final residual = 5.13437e-09, No Iterations 7
DILUPBiCG:  Solving for Uy, Initial residual = 0.00230068, Final residual = 9.25415e-09, No Iterations 6
DILUPBiCG:  Solving for T, Initial residual = 0.00989832, Final residual = 4.83725e-07, No Iterations 500
GAMG:  Solving for p_rgh, Initial residual = 0.0115537, Final residual = 0.000104603, No Iterations 11
time step continuity errors : sum local = 0.00715441, global = -0.000761693, cumulative = -0.0651672
DILUPBiCG:  Solving for epsilon, Initial residual = 0.00370148, Final residual = 8.92242e-07, No Iterations 3
DILUPBiCG:  Solving for k, Initial residual = 0.00542469, Final residual = 1.16552e-07, No Iterations 5
ExecutionTime = 51.26 s  ClockTime = 52 s

Time = 77

DILUPBiCG:  Solving for Ux, Initial residual = 0.00110949, Final residual = 5.35927e-09, No Iterations 7
DILUPBiCG:  Solving for Uy, Initial residual = 0.00230277, Final residual = 8.87563e-09, No Iterations 6
DILUPBiCG:  Solving for T, Initial residual = 0.00986945, Final residual = 7.45905e-07, No Iterations 420
GAMG:  Solving for p_rgh, Initial residual = 0.0115148, Final residual = 0.000104845, No Iterations 11
time step continuity errors : sum local = 0.00718674, global = 0.000782017, cumulative = -0.0643852
DILUPBiCG:  Solving for epsilon, Initial residual = 0.00367355, Final residual = 8.97386e-07, No Iterations 3
DILUPBiCG:  Solving for k, Initial residual = 0.00536808, Final residual = 1.15605e-07, No Iterations 5
ExecutionTime = 51.92 s  ClockTime = 53 s

Time = 78

DILUPBiCG:  Solving for Ux, Initial residual = 0.0011107, Final residual = 5.58526e-09, No Iterations 7
DILUPBiCG:  Solving for Uy, Initial residual = 0.00230413, Final residual = 8.72806e-09, No Iterations 6
DILUPBiCG:  Solving for T, Initial residual = 0.00983689, Final residual = 7.63567e-07, No Iterations 493
GAMG:  Solving for p_rgh, Initial residual = 0.0115401, Final residual = 9.90417e-05, No Iterations 11
time step continuity errors : sum local = 0.00680254, global = 0.000703803, cumulative = -0.0636814
DILUPBiCG:  Solving for epsilon, Initial residual = 0.00364582, Final residual = 9.05425e-07, No Iterations 3
DILUPBiCG:  Solving for k, Initial residual = 0.00533089, Final residual = 1.16107e-07, No Iterations 5
ExecutionTime = 52.63 s  ClockTime = 53 s

Time = 79

DILUPBiCG:  Solving for Ux, Initial residual = 0.00111141, Final residual = 5.82027e-09, No Iterations 7
DILUPBiCG:  Solving for Uy, Initial residual = 0.00230546, Final residual = 8.71506e-09, No Iterations 6
DILUPBiCG:  Solving for T, Initial residual = 0.00980014, Final residual = 6.27885e-07, No Iterations 528
GAMG:  Solving for p_rgh, Initial residual = 0.0115987, Final residual = 0.000112186, No Iterations 11
time step continuity errors : sum local = 0.00772001, global = -0.000884946, cumulative = -0.0645663
DILUPBiCG:  Solving for epsilon, Initial residual = 0.00362122, Final residual = 9.18335e-07, No Iterations 3
DILUPBiCG:  Solving for k, Initial residual = 0.00530062, Final residual = 1.1639e-07, No Iterations 5
ExecutionTime = 53.3 s  ClockTime = 54 s

Time = 80

DILUPBiCG:  Solving for Ux, Initial residual = 0.00111156, Final residual = 6.06617e-09, No Iterations 7
DILUPBiCG:  Solving for Uy, Initial residual = 0.0023072, Final residual = 8.78383e-09, No Iterations 6
DILUPBiCG:  Solving for T, Initial residual = 0.00975971, Final residual = 9.92342e-07, No Iterations 493
GAMG:  Solving for p_rgh, Initial residual = 0.011637, Final residual = 0.000103188, No Iterations 12
time step continuity errors : sum local = 0.00711378, global = 0.00079296, cumulative = -0.0637734
DILUPBiCG:  Solving for epsilon, Initial residual = 0.00360333, Final residual = 9.36713e-07, No Iterations 3
DILUPBiCG:  Solving for k, Initial residual = 0.00526148, Final residual = 1.16626e-07, No Iterations 5
ExecutionTime = 54.09 s  ClockTime = 55 s

Time = 81

DILUPBiCG:  Solving for Ux, Initial residual = 0.00111153, Final residual = 6.31547e-09, No Iterations 7
DILUPBiCG:  Solving for Uy, Initial residual = 0.00230988, Final residual = 8.96975e-09, No Iterations 6
DILUPBiCG:  Solving for T, Initial residual = 0.00971584, Final residual = 9.03282e-07, No Iterations 497
GAMG:  Solving for p_rgh, Initial residual = 0.0116349, Final residual = 0.000107202, No Iterations 12
time step continuity errors : sum local = 0.00740335, global = 0.000838181, cumulative = -0.0629352
DILUPBiCG:  Solving for epsilon, Initial residual = 0.00358941, Final residual = 9.68021e-07, No Iterations 3
DILUPBiCG:  Solving for k, Initial residual = 0.00521133, Final residual = 1.16906e-07, No Iterations 5
ExecutionTime = 54.87 s  ClockTime = 56 s

Time = 82

DILUPBiCG:  Solving for Ux, Initial residual = 0.00111149, Final residual = 6.56611e-09, No Iterations 7
DILUPBiCG:  Solving for Uy, Initial residual = 0.00231234, Final residual = 9.10943e-09, No Iterations 6
DILUPBiCG:  Solving for T, Initial residual = 0.00967537, Final residual = 7.11374e-07, No Iterations 496
GAMG:  Solving for p_rgh, Initial residual = 0.0115767, Final residual = 0.000110109, No Iterations 12
time step continuity errors : sum local = 0.00761697, global = 0.000868407, cumulative = -0.0620668
DILUPBiCG:  Solving for epsilon, Initial residual = 0.00357656, Final residual = 6.30047e-08, No Iterations 4
DILUPBiCG:  Solving for k, Initial residual = 0.00515088, Final residual = 1.16863e-07, No Iterations 5
ExecutionTime = 55.49 s  ClockTime = 56 s

Time = 83

DILUPBiCG:  Solving for Ux, Initial residual = 0.00111154, Final residual = 6.80522e-09, No Iterations 7
DILUPBiCG:  Solving for Uy, Initial residual = 0.00231409, Final residual = 9.17784e-09, No Iterations 6
DILUPBiCG:  Solving for T, Initial residual = 0.00963821, Final residual = 8.43592e-07, No Iterations 521
GAMG:  Solving for p_rgh, Initial residual = 0.0115234, Final residual = 0.000112668, No Iterations 12
time step continuity errors : sum local = 0.00780618, global = 0.000891209, cumulative = -0.0611756
DILUPBiCG:  Solving for epsilon, Initial residual = 0.00356387, Final residual = 6.04207e-08, No Iterations 4
DILUPBiCG:  Solving for k, Initial residual = 0.00509261, Final residual = 1.1571e-07, No Iterations 5
ExecutionTime = 56.24 s  ClockTime = 57 s

Time = 84

DILUPBiCG:  Solving for Ux, Initial residual = 0.001112, Final residual = 7.0326e-09, No Iterations 7
DILUPBiCG:  Solving for Uy, Initial residual = 0.00231507, Final residual = 9.22399e-09, No Iterations 6
DILUPBiCG:  Solving for T, Initial residual = 0.00960678, Final residual = 8.1581e-07, No Iterations 524
GAMG:  Solving for p_rgh, Initial residual = 0.0115043, Final residual = 0.000114596, No Iterations 12
time step continuity errors : sum local = 0.00795124, global = 0.000907112, cumulative = -0.0602685
DILUPBiCG:  Solving for epsilon, Initial residual = 0.00354946, Final residual = 5.9953e-08, No Iterations 4
DILUPBiCG:  Solving for k, Initial residual = 0.00504561, Final residual = 1.14054e-07, No Iterations 5
ExecutionTime = 56.99 s  ClockTime = 58 s

Time = 85

DILUPBiCG:  Solving for Ux, Initial residual = 0.00111305, Final residual = 7.24185e-09, No Iterations 7
DILUPBiCG:  Solving for Uy, Initial residual = 0.0023158, Final residual = 9.32201e-09, No Iterations 6
DILUPBiCG:  Solving for T, Initial residual = 0.00957652, Final residual = 7.45431e-07, No Iterations 507
GAMG:  Solving for p_rgh, Initial residual = 0.0115206, Final residual = 0.000102513, No Iterations 13
time step continuity errors : sum local = 0.00712227, global = -0.000776395, cumulative = -0.0610449
DILUPBiCG:  Solving for epsilon, Initial residual = 0.00353279, Final residual = 6.02958e-08, No Iterations 4
DILUPBiCG:  Solving for k, Initial residual = 0.00501056, Final residual = 1.12375e-07, No Iterations 5
ExecutionTime = 57.65 s  ClockTime = 58 s

Time = 86

DILUPBiCG:  Solving for Ux, Initial residual = 0.00111348, Final residual = 7.4366e-09, No Iterations 7
DILUPBiCG:  Solving for Uy, Initial residual = 0.00231673, Final residual = 9.45782e-09, No Iterations 6
DILUPBiCG:  Solving for T, Initial residual = 0.00954582, Final residual = 5.8291e-07, No Iterations 529
GAMG:  Solving for p_rgh, Initial residual = 0.0115614, Final residual = 0.000113327, No Iterations 12
time step continuity errors : sum local = 0.00788295, global = 0.000887257, cumulative = -0.0601576
DILUPBiCG:  Solving for epsilon, Initial residual = 0.00351729, Final residual = 6.12849e-08, No Iterations 4
DILUPBiCG:  Solving for k, Initial residual = 0.0049726, Final residual = 1.12595e-07, No Iterations 5
ExecutionTime = 58.37 s  ClockTime = 59 s

Time = 87

DILUPBiCG:  Solving for Ux, Initial residual = 0.00111326, Final residual = 7.65434e-09, No Iterations 7
DILUPBiCG:  Solving for Uy, Initial residual = 0.0023172, Final residual = 9.60665e-09, No Iterations 6
DILUPBiCG:  Solving for T, Initial residual = 0.00950941, Final residual = 9.51422e-07, No Iterations 569
GAMG:  Solving for p_rgh, Initial residual = 0.0115818, Final residual = 0.000111714, No Iterations 12
time step continuity errors : sum local = 0.00777889, global = 0.000865823, cumulative = -0.0592918
DILUPBiCG:  Solving for epsilon, Initial residual = 0.00350256, Final residual = 6.32886e-08, No Iterations 4
DILUPBiCG:  Solving for k, Initial residual = 0.00493596, Final residual = 1.16282e-07, No Iterations 5
ExecutionTime = 59.19 s  ClockTime = 60 s

Time = 88

DILUPBiCG:  Solving for Ux, Initial residual = 0.00111293, Final residual = 7.84002e-09, No Iterations 7
DILUPBiCG:  Solving for Uy, Initial residual = 0.00231824, Final residual = 9.75339e-09, No Iterations 6
DILUPBiCG:  Solving for T, Initial residual = 0.00946898, Final residual = 9.96209e-07, No Iterations 538
GAMG:  Solving for p_rgh, Initial residual = 0.0115785, Final residual = 0.000112139, No Iterations 12
time step continuity errors : sum local = 0.00781601, global = 0.000862983, cumulative = -0.0584288
DILUPBiCG:  Solving for epsilon, Initial residual = 0.00348969, Final residual = 6.60769e-08, No Iterations 4
DILUPBiCG:  Solving for k, Initial residual = 0.00489313, Final residual = 1.23899e-07, No Iterations 5
ExecutionTime = 59.91 s  ClockTime = 61 s

Time = 89

DILUPBiCG:  Solving for Ux, Initial residual = 0.00111256, Final residual = 7.99781e-09, No Iterations 7
DILUPBiCG:  Solving for Uy, Initial residual = 0.00231977, Final residual = 9.89502e-09, No Iterations 6
DILUPBiCG:  Solving for T, Initial residual = 0.00942303, Final residual = 4.61431e-07, No Iterations 537
GAMG:  Solving for p_rgh, Initial residual = 0.0115619, Final residual = 0.000113475, No Iterations 12
time step continuity errors : sum local = 0.0079165, global = 0.000872371, cumulative = -0.0575564
DILUPBiCG:  Solving for epsilon, Initial residual = 0.00347729, Final residual = 6.98129e-08, No Iterations 4
DILUPBiCG:  Solving for k, Initial residual = 0.00484855, Final residual = 1.37189e-07, No Iterations 5
ExecutionTime = 60.67 s  ClockTime = 62 s

Time = 90

DILUPBiCG:  Solving for Ux, Initial residual = 0.00111224, Final residual = 8.12524e-09, No Iterations 7
DILUPBiCG:  Solving for Uy, Initial residual = 0.00232106, Final residual = 5.52868e-09, No Iterations 7
DILUPBiCG:  Solving for T, Initial residual = 0.00937019, Final residual = 8.2535e-07, No Iterations 532
GAMG:  Solving for p_rgh, Initial residual = 0.0115248, Final residual = 0.000102638, No Iterations 13
time step continuity errors : sum local = 0.0071666, global = -0.000750934, cumulative = -0.0583074
DILUPBiCG:  Solving for epsilon, Initial residual = 0.00346153, Final residual = 7.63593e-08, No Iterations 4
DILUPBiCG:  Solving for k, Initial residual = 0.00481051, Final residual = 1.53425e-07, No Iterations 5
ExecutionTime = 61.37 s  ClockTime = 62 s

Time = 91

DILUPBiCG:  Solving for Ux, Initial residual = 0.00111217, Final residual = 8.21967e-09, No Iterations 7
DILUPBiCG:  Solving for Uy, Initial residual = 0.00232212, Final residual = 5.40852e-09, No Iterations 7
DILUPBiCG:  Solving for T, Initial residual = 0.00931125, Final residual = 9.70106e-07, No Iterations 487
GAMG:  Solving for p_rgh, Initial residual = 0.0114969, Final residual = 0.000114694, No Iterations 12
time step continuity errors : sum local = 0.00801444, global = 0.000878868, cumulative = -0.0574285
DILUPBiCG:  Solving for epsilon, Initial residual = 0.00344359, Final residual = 8.92384e-08, No Iterations 4
DILUPBiCG:  Solving for k, Initial residual = 0.00478379, Final residual = 1.65493e-07, No Iterations 5
ExecutionTime = 62.05 s  ClockTime = 63 s

Time = 92

DILUPBiCG:  Solving for Ux, Initial residual = 0.00111224, Final residual = 8.29706e-09, No Iterations 7
DILUPBiCG:  Solving for Uy, Initial residual = 0.00232256, Final residual = 5.27822e-09, No Iterations 7
DILUPBiCG:  Solving for T, Initial residual = 0.00924378, Final residual = 9.01156e-07, No Iterations 536
GAMG:  Solving for p_rgh, Initial residual = 0.0115208, Final residual = 0.000102571, No Iterations 13
time step continuity errors : sum local = 0.0071713, global = -0.000749038, cumulative = -0.0581775
DILUPBiCG:  Solving for epsilon, Initial residual = 0.0034234, Final residual = 1.13151e-07, No Iterations 4
DILUPBiCG:  Solving for k, Initial residual = 0.00476306, Final residual = 1.65944e-07, No Iterations 5
ExecutionTime = 63.06 s  ClockTime = 64 s

Time = 93

DILUPBiCG:  Solving for Ux, Initial residual = 0.00111265, Final residual = 8.33221e-09, No Iterations 7
DILUPBiCG:  Solving for Uy, Initial residual = 0.00232294, Final residual = 5.12376e-09, No Iterations 7
DILUPBiCG:  Solving for T, Initial residual = 0.00917079, Final residual = 8.95764e-07, No Iterations 548
GAMG:  Solving for p_rgh, Initial residual = 0.0115665, Final residual = 0.000112608, No Iterations 12
time step continuity errors : sum local = 0.00787629, global = 0.000834529, cumulative = -0.057343
DILUPBiCG:  Solving for epsilon, Initial residual = 0.00340214, Final residual = 1.60287e-07, No Iterations 4
DILUPBiCG:  Solving for k, Initial residual = 0.00473562, Final residual = 1.58587e-07, No Iterations 5
ExecutionTime = 64.06 s  ClockTime = 65 s

Time = 94

DILUPBiCG:  Solving for Ux, Initial residual = 0.00111249, Final residual = 9.9785e-09, No Iterations 6
DILUPBiCG:  Solving for Uy, Initial residual = 0.00232291, Final residual = 4.97792e-09, No Iterations 7
DILUPBiCG:  Solving for T, Initial residual = 0.00909352, Final residual = 5.72564e-07, No Iterations 549
GAMG:  Solving for p_rgh, Initial residual = 0.0115971, Final residual = 0.000112974, No Iterations 12
time step continuity errors : sum local = 0.00790399, global = 0.000825792, cumulative = -0.0565172
DILUPBiCG:  Solving for epsilon, Initial residual = 0.0033837, Final residual = 2.46988e-07, No Iterations 4
DILUPBiCG:  Solving for k, Initial residual = 0.00470261, Final residual = 1.56574e-07, No Iterations 5
ExecutionTime = 65.05 s  ClockTime = 66 s

Time = 95

DILUPBiCG:  Solving for Ux, Initial residual = 0.00111189, Final residual = 9.93605e-09, No Iterations 6
DILUPBiCG:  Solving for Uy, Initial residual = 0.0023228, Final residual = 4.81911e-09, No Iterations 7
DILUPBiCG:  Solving for T, Initial residual = 0.00901557, Final residual = 5.90281e-07, No Iterations 549
GAMG:  Solving for p_rgh, Initial residual = 0.0116189, Final residual = 0.000105919, No Iterations 13
time step continuity errors : sum local = 0.00741174, global = -0.000740466, cumulative = -0.0572577
DILUPBiCG:  Solving for epsilon, Initial residual = 0.00336567, Final residual = 4.51461e-07, No Iterations 4
DILUPBiCG:  Solving for k, Initial residual = 0.00467422, Final residual = 1.61568e-07, No Iterations 5
ExecutionTime = 66.06 s  ClockTime = 67 s

Time = 96

DILUPBiCG:  Solving for Ux, Initial residual = 0.0011113, Final residual = 9.93686e-09, No Iterations 6
DILUPBiCG:  Solving for Uy, Initial residual = 0.00232284, Final residual = 4.63529e-09, No Iterations 7
DILUPBiCG:  Solving for T, Initial residual = 0.00893694, Final residual = 9.78246e-07, No Iterations 536
GAMG:  Solving for p_rgh, Initial residual = 0.0116085, Final residual = 0.000105269, No Iterations 13
time step continuity errors : sum local = 0.00736739, global = -0.000734834, cumulative = -0.0579925
DILUPBiCG:  Solving for epsilon, Initial residual = 0.00334523, Final residual = 1.30804e-08, No Iterations 5
DILUPBiCG:  Solving for k, Initial residual = 0.00464332, Final residual = 1.66776e-07, No Iterations 5
ExecutionTime = 67.06 s  ClockTime = 68 s

Time = 97

DILUPBiCG:  Solving for Ux, Initial residual = 0.00111087, Final residual = 9.99032e-09, No Iterations 6
DILUPBiCG:  Solving for Uy, Initial residual = 0.00232382, Final residual = 4.43075e-09, No Iterations 7
DILUPBiCG:  Solving for T, Initial residual = 0.00885809, Final residual = 4.54266e-07, No Iterations 540
GAMG:  Solving for p_rgh, Initial residual = 0.0115609, Final residual = 0.000109961, No Iterations 12
time step continuity errors : sum local = 0.00769676, global = 0.000771912, cumulative = -0.0572206
DILUPBiCG:  Solving for epsilon, Initial residual = 0.0033228, Final residual = 1.35185e-08, No Iterations 5
DILUPBiCG:  Solving for k, Initial residual = 0.00461487, Final residual = 1.6573e-07, No Iterations 5
ExecutionTime = 68.06 s  ClockTime = 69 s

Time = 98

DILUPBiCG:  Solving for Ux, Initial residual = 0.00111051, Final residual = 8.22087e-09, No Iterations 7
DILUPBiCG:  Solving for Uy, Initial residual = 0.00232457, Final residual = 4.20639e-09, No Iterations 7
DILUPBiCG:  Solving for T, Initial residual = 0.00877857, Final residual = 8.61737e-07, No Iterations 584
GAMG:  Solving for p_rgh, Initial residual = 0.0115136, Final residual = 0.000107169, No Iterations 12
time step continuity errors : sum local = 0.00750156, global = 0.000733919, cumulative = -0.0564867
DILUPBiCG:  Solving for epsilon, Initial residual = 0.00330227, Final residual = 8.42948e-07, No Iterations 3
DILUPBiCG:  Solving for k, Initial residual = 0.00459096, Final residual = 1.50856e-07, No Iterations 5
ExecutionTime = 69.1 s  ClockTime = 70 s

Time = 99

DILUPBiCG:  Solving for Ux, Initial residual = 0.00111038, Final residual = 8.11589e-09, No Iterations 7
DILUPBiCG:  Solving for Uy, Initial residual = 0.00232519, Final residual = 3.94771e-09, No Iterations 7
DILUPBiCG:  Solving for T, Initial residual = 0.00869645, Final residual = 7.11215e-07, No Iterations 575
GAMG:  Solving for p_rgh, Initial residual = 0.0114728, Final residual = 0.000104432, No Iterations 13
time step continuity errors : sum local = 0.00730944, global = -0.000713863, cumulative = -0.0572005
DILUPBiCG:  Solving for epsilon, Initial residual = 0.0032832, Final residual = 6.41088e-07, No Iterations 4
DILUPBiCG:  Solving for k, Initial residual = 0.00457188, Final residual = 1.27671e-07, No Iterations 5
ExecutionTime = 70.15 s  ClockTime = 71 s

Time = 100

DILUPBiCG:  Solving for Ux, Initial residual = 0.00111037, Final residual = 8.04161e-09, No Iterations 7
DILUPBiCG:  Solving for Uy, Initial residual = 0.00232549, Final residual = 3.65866e-09, No Iterations 7
DILUPBiCG:  Solving for T, Initial residual = 0.00861283, Final residual = 7.92299e-07, No Iterations 538
GAMG:  Solving for p_rgh, Initial residual = 0.0115198, Final residual = 0.000105883, No Iterations 13
[...]
ExecutionTime = 5891.76 s  ClockTime = 6108 s

Time = 4778

DILUPBiCG:  Solving for Ux, Initial residual = 1.423e-07, Final residual = 6.48879e-10, No Iterations 3
DILUPBiCG:  Solving for Uy, Initial residual = 2.11773e-07, Final residual = 7.58713e-09, No Iterations 1
DILUPBiCG:  Solving for T, Initial residual = 4.6788e-07, Final residual = 7.65129e-09, No Iterations 573
GAMG:  Solving for p_rgh, Initial residual = 4.59457e-07, Final residual = 6.58669e-08, No Iterations 3
time step continuity errors : sum local = 2.96713e-06, global = 2.24526e-08, cumulative = -0.0749198
DILUPBiCG:  Solving for epsilon, Initial residual = 7.14474e-07, Final residual = 1.59599e-09, No Iterations 2
DILUPBiCG:  Solving for k, Initial residual = 1.63225e-06, Final residual = 1.37593e-09, No Iterations 3
ExecutionTime = 5893.07 s  ClockTime = 6109 s

Time = 4779

DILUPBiCG:  Solving for Ux, Initial residual = 1.42167e-07, Final residual = 6.48135e-10, No Iterations 3
DILUPBiCG:  Solving for Uy, Initial residual = 2.11471e-07, Final residual = 7.57281e-09, No Iterations 1
DILUPBiCG:  Solving for T, Initial residual = 4.67144e-07, Final residual = 7.15822e-09, No Iterations 556
GAMG:  Solving for p_rgh, Initial residual = 4.55067e-07, Final residual = 6.25711e-08, No Iterations 3
time step continuity errors : sum local = 2.81866e-06, global = -2.00814e-08, cumulative = -0.0749198
DILUPBiCG:  Solving for epsilon, Initial residual = 7.13696e-07, Final residual = 1.59418e-09, No Iterations 2
DILUPBiCG:  Solving for k, Initial residual = 1.63044e-06, Final residual = 1.37386e-09, No Iterations 3
ExecutionTime = 5894.46 s  ClockTime = 6111 s

Time = 4780

DILUPBiCG:  Solving for Ux, Initial residual = 1.42017e-07, Final residual = 6.46813e-10, No Iterations 3
DILUPBiCG:  Solving for Uy, Initial residual = 2.11188e-07, Final residual = 7.56154e-09, No Iterations 1
DILUPBiCG:  Solving for T, Initial residual = 4.65847e-07, Final residual = 6.47506e-09, No Iterations 566
GAMG:  Solving for p_rgh, Initial residual = 4.47422e-07, Final residual = 9.80063e-08, No Iterations 2
time step continuity errors : sum local = 4.41493e-06, global = -7.34077e-09, cumulative = -0.0749198
DILUPBiCG:  Solving for epsilon, Initial residual = 7.12921e-07, Final residual = 1.59283e-09, No Iterations 2
DILUPBiCG:  Solving for k, Initial residual = 1.62863e-06, Final residual = 1.37189e-09, No Iterations 3
ExecutionTime = 5895.81 s  ClockTime = 6112 s

Time = 4781

DILUPBiCG:  Solving for Ux, Initial residual = 1.41779e-07, Final residual = 6.46749e-10, No Iterations 3
DILUPBiCG:  Solving for Uy, Initial residual = 2.11026e-07, Final residual = 7.55867e-09, No Iterations 1
DILUPBiCG:  Solving for T, Initial residual = 4.65035e-07, Final residual = 8.67872e-09, No Iterations 486
GAMG:  Solving for p_rgh, Initial residual = 4.60832e-07, Final residual = 6.76155e-08, No Iterations 3
time step continuity errors : sum local = 3.0459e-06, global = 2.20513e-08, cumulative = -0.0749198
DILUPBiCG:  Solving for epsilon, Initial residual = 7.12137e-07, Final residual = 1.59073e-09, No Iterations 2
DILUPBiCG:  Solving for k, Initial residual = 1.62682e-06, Final residual = 1.36959e-09, No Iterations 3
ExecutionTime = 5896.94 s  ClockTime = 6113 s

Time = 4782

DILUPBiCG:  Solving for Ux, Initial residual = 1.41666e-07, Final residual = 6.46082e-10, No Iterations 3
DILUPBiCG:  Solving for Uy, Initial residual = 2.10707e-07, Final residual = 7.54384e-09, No Iterations 1
DILUPBiCG:  Solving for T, Initial residual = 4.66088e-07, Final residual = 9.1878e-09, No Iterations 553
GAMG:  Solving for p_rgh, Initial residual = 4.54125e-07, Final residual = 6.42097e-08, No Iterations 3
time step continuity errors : sum local = 2.89248e-06, global = -2.25769e-08, cumulative = -0.0749198
DILUPBiCG:  Solving for epsilon, Initial residual = 7.11365e-07, Final residual = 1.58874e-09, No Iterations 2
DILUPBiCG:  Solving for k, Initial residual = 1.62501e-06, Final residual = 1.36757e-09, No Iterations 3
ExecutionTime = 5898.15 s  ClockTime = 6115 s

Time = 4783

DILUPBiCG:  Solving for Ux, Initial residual = 1.41529e-07, Final residual = 6.44286e-10, No Iterations 3
DILUPBiCG:  Solving for Uy, Initial residual = 2.10418e-07, Final residual = 7.53324e-09, No Iterations 1
DILUPBiCG:  Solving for T, Initial residual = 4.66141e-07, Final residual = 5.48928e-09, No Iterations 455
GAMG:  Solving for p_rgh, Initial residual = 4.44227e-07, Final residual = 9.73103e-08, No Iterations 2
time step continuity errors : sum local = 4.38357e-06, global = -7.52834e-09, cumulative = -0.0749198
DILUPBiCG:  Solving for epsilon, Initial residual = 7.10597e-07, Final residual = 1.58722e-09, No Iterations 2
DILUPBiCG:  Solving for k, Initial residual = 1.62321e-06, Final residual = 1.36562e-09, No Iterations 3
ExecutionTime = 5899.24 s  ClockTime = 6116 s

Time = 4784

DILUPBiCG:  Solving for Ux, Initial residual = 1.41287e-07, Final residual = 6.43821e-10, No Iterations 3
DILUPBiCG:  Solving for Uy, Initial residual = 2.10266e-07, Final residual = 7.53156e-09, No Iterations 1
DILUPBiCG:  Solving for T, Initial residual = 4.62417e-07, Final residual = 4.64177e-09, No Iterations 570
GAMG:  Solving for p_rgh, Initial residual = 4.56953e-07, Final residual = 6.68404e-08, No Iterations 3
time step continuity errors : sum local = 3.01098e-06, global = 2.1501e-08, cumulative = -0.0749198
DILUPBiCG:  Solving for epsilon, Initial residual = 7.09816e-07, Final residual = 1.58516e-09, No Iterations 2
DILUPBiCG:  Solving for k, Initial residual = 1.62141e-06, Final residual = 1.36334e-09, No Iterations 3
ExecutionTime = 5900.53 s  ClockTime = 6117 s

Time = 4785

DILUPBiCG:  Solving for Ux, Initial residual = 1.41161e-07, Final residual = 6.42961e-10, No Iterations 3
DILUPBiCG:  Solving for Uy, Initial residual = 2.09959e-07, Final residual = 7.51716e-09, No Iterations 1
DILUPBiCG:  Solving for T, Initial residual = 4.61136e-07, Final residual = 6.82989e-09, No Iterations 448
GAMG:  Solving for p_rgh, Initial residual = 4.5187e-07, Final residual = 6.42933e-08, No Iterations 3
time step continuity errors : sum local = 2.89625e-06, global = -2.15365e-08, cumulative = -0.0749198
DILUPBiCG:  Solving for epsilon, Initial residual = 7.09043e-07, Final residual = 1.58334e-09, No Iterations 2
DILUPBiCG:  Solving for k, Initial residual = 1.61961e-06, Final residual = 1.3613e-09, No Iterations 3
ExecutionTime = 5901.73 s  ClockTime = 6118 s

Time = 4786

DILUPBiCG:  Solving for Ux, Initial residual = 1.41014e-07, Final residual = 6.41453e-10, No Iterations 3
DILUPBiCG:  Solving for Uy, Initial residual = 2.09675e-07, Final residual = 7.50609e-09, No Iterations 1
DILUPBiCG:  Solving for T, Initial residual = 4.62253e-07, Final residual = 8.48926e-09, No Iterations 558
GAMG:  Solving for p_rgh, Initial residual = 4.43438e-07, Final residual = 9.72448e-08, No Iterations 2
time step continuity errors : sum local = 4.38062e-06, global = -7.29946e-09, cumulative = -0.0749199
DILUPBiCG:  Solving for epsilon, Initial residual = 7.08274e-07, Final residual = 1.58198e-09, No Iterations 2
DILUPBiCG:  Solving for k, Initial residual = 1.61781e-06, Final residual = 1.35937e-09, No Iterations 3
ExecutionTime = 5902.93 s  ClockTime = 6120 s

Time = 4787

DILUPBiCG:  Solving for Ux, Initial residual = 1.40776e-07, Final residual = 6.41283e-10, No Iterations 3
DILUPBiCG:  Solving for Uy, Initial residual = 2.09517e-07, Final residual = 7.50352e-09, No Iterations 1
DILUPBiCG:  Solving for T, Initial residual = 4.63762e-07, Final residual = 9.82608e-09, No Iterations 456
GAMG:  Solving for p_rgh, Initial residual = 4.56932e-07, Final residual = 6.8655e-08, No Iterations 3
time step continuity errors : sum local = 3.09272e-06, global = 2.29172e-08, cumulative = -0.0749198
DILUPBiCG:  Solving for epsilon, Initial residual = 7.07494e-07, Final residual = 1.57991e-09, No Iterations 2
DILUPBiCG:  Solving for k, Initial residual = 1.61601e-06, Final residual = 1.3571e-09, No Iterations 3
ExecutionTime = 5903.88 s  ClockTime = 6121 s

Time = 4788

DILUPBiCG:  Solving for Ux, Initial residual = 1.4066e-07, Final residual = 6.40614e-10, No Iterations 3
DILUPBiCG:  Solving for Uy, Initial residual = 2.09204e-07, Final residual = 7.48884e-09, No Iterations 1
DILUPBiCG:  Solving for T, Initial residual = 4.64129e-07, Final residual = 8.46151e-09, No Iterations 452
GAMG:  Solving for p_rgh, Initial residual = 4.51002e-07, Final residual = 6.69291e-08, No Iterations 3
time step continuity errors : sum local = 3.01498e-06, global = -2.08806e-08, cumulative = -0.0749199
DILUPBiCG:  Solving for epsilon, Initial residual = 7.06725e-07, Final residual = 1.57798e-09, No Iterations 2
DILUPBiCG:  Solving for k, Initial residual = 1.61422e-06, Final residual = 1.35509e-09, No Iterations 3
ExecutionTime = 5905.13 s  ClockTime = 6122 s

Time = 4789

DILUPBiCG:  Solving for Ux, Initial residual = 1.4052e-07, Final residual = 6.38901e-10, No Iterations 3
DILUPBiCG:  Solving for Uy, Initial residual = 2.0892e-07, Final residual = 7.47812e-09, No Iterations 1
DILUPBiCG:  Solving for T, Initial residual = 4.62561e-07, Final residual = 8.43045e-09, No Iterations 561
GAMG:  Solving for p_rgh, Initial residual = 4.41425e-07, Final residual = 9.75541e-08, No Iterations 2
time step continuity errors : sum local = 4.39455e-06, global = -7.27783e-09, cumulative = -0.0749199
DILUPBiCG:  Solving for epsilon, Initial residual = 7.05961e-07, Final residual = 1.57652e-09, No Iterations 2
DILUPBiCG:  Solving for k, Initial residual = 1.61243e-06, Final residual = 1.35317e-09, No Iterations 3
ExecutionTime = 5906.27 s  ClockTime = 6123 s

Time = 4790

DILUPBiCG:  Solving for Ux, Initial residual = 1.40281e-07, Final residual = 6.38524e-10, No Iterations 3
DILUPBiCG:  Solving for Uy, Initial residual = 2.08766e-07, Final residual = 7.47602e-09, No Iterations 1
DILUPBiCG:  Solving for T, Initial residual = 4.62513e-07, Final residual = 9.23563e-09, No Iterations 575
GAMG:  Solving for p_rgh, Initial residual = 4.55073e-07, Final residual = 7.15338e-08, No Iterations 3
time step continuity errors : sum local = 3.22241e-06, global = 2.28488e-08, cumulative = -0.0749198
DILUPBiCG:  Solving for epsilon, Initial residual = 7.05184e-07, Final residual = 1.57448e-09, No Iterations 2
DILUPBiCG:  Solving for k, Initial residual = 1.61064e-06, Final residual = 1.35091e-09, No Iterations 3
ExecutionTime = 5908.01 s  ClockTime = 6125 s

Time = 4791

DILUPBiCG:  Solving for Ux, Initial residual = 1.4016e-07, Final residual = 6.37647e-10, No Iterations 3
DILUPBiCG:  Solving for Uy, Initial residual = 2.08459e-07, Final residual = 7.46144e-09, No Iterations 1
DILUPBiCG:  Solving for T, Initial residual = 4.62104e-07, Final residual = 4.98409e-09, No Iterations 573
GAMG:  Solving for p_rgh, Initial residual = 4.50237e-07, Final residual = 7.01506e-08, No Iterations 3
time step continuity errors : sum local = 3.1601e-06, global = -2.13668e-08, cumulative = -0.0749199
DILUPBiCG:  Solving for epsilon, Initial residual = 7.04417e-07, Final residual = 1.57266e-09, No Iterations 2
DILUPBiCG:  Solving for k, Initial residual = 1.60885e-06, Final residual = 1.3489e-09, No Iterations 3
ExecutionTime = 5909.31 s  ClockTime = 6126 s

Time = 4792

DILUPBiCG:  Solving for Ux, Initial residual = 1.40015e-07, Final residual = 6.36078e-10, No Iterations 3
DILUPBiCG:  Solving for Uy, Initial residual = 2.08177e-07, Final residual = 7.45057e-09, No Iterations 1
DILUPBiCG:  Solving for T, Initial residual = 4.57798e-07, Final residual = 6.96733e-09, No Iterations 555
GAMG:  Solving for p_rgh, Initial residual = 4.40893e-07, Final residual = 9.83728e-08, No Iterations 2
time step continuity errors : sum local = 4.43143e-06, global = -7.12513e-09, cumulative = -0.0749199
DILUPBiCG:  Solving for epsilon, Initial residual = 7.03652e-07, Final residual = 1.5713e-09, No Iterations 2
DILUPBiCG:  Solving for k, Initial residual = 1.60706e-06, Final residual = 1.34699e-09, No Iterations 3
ExecutionTime = 5910.58 s  ClockTime = 6128 s

Time = 4793

DILUPBiCG:  Solving for Ux, Initial residual = 1.39778e-07, Final residual = 6.35892e-10, No Iterations 3
DILUPBiCG:  Solving for Uy, Initial residual = 2.0802e-07, Final residual = 7.44811e-09, No Iterations 1
DILUPBiCG:  Solving for T, Initial residual = 4.58918e-07, Final residual = 9.71651e-09, No Iterations 464
GAMG:  Solving for p_rgh, Initial residual = 4.55874e-07, Final residual = 7.61262e-08, No Iterations 3
time step continuity errors : sum local = 3.42928e-06, global = 2.00581e-08, cumulative = -0.0749198
DILUPBiCG:  Solving for epsilon, Initial residual = 7.02877e-07, Final residual = 1.56927e-09, No Iterations 2
DILUPBiCG:  Solving for k, Initial residual = 1.60528e-06, Final residual = 1.34475e-09, No Iterations 3
ExecutionTime = 5911.78 s  ClockTime = 6129 s

Time = 4794

DILUPBiCG:  Solving for Ux, Initial residual = 1.39661e-07, Final residual = 6.35276e-10, No Iterations 3
DILUPBiCG:  Solving for Uy, Initial residual = 2.07712e-07, Final residual = 7.43376e-09, No Iterations 1
DILUPBiCG:  Solving for T, Initial residual = 4.61061e-07, Final residual = 9.84582e-09, No Iterations 456
GAMG:  Solving for p_rgh, Initial residual = 4.5106e-07, Final residual = 7.50601e-08, No Iterations 3
time step continuity errors : sum local = 3.38126e-06, global = -1.84853e-08, cumulative = -0.0749199
DILUPBiCG:  Solving for epsilon, Initial residual = 7.02112e-07, Final residual = 1.56739e-09, No Iterations 2
DILUPBiCG:  Solving for k, Initial residual = 1.60349e-06, Final residual = 1.34276e-09, No Iterations 3
ExecutionTime = 5912.65 s  ClockTime = 6130 s

Time = 4795

DILUPBiCG:  Solving for Ux, Initial residual = 1.39519e-07, Final residual = 6.33649e-10, No Iterations 3
DILUPBiCG:  Solving for Uy, Initial residual = 2.0743e-07, Final residual = 7.42329e-09, No Iterations 1
DILUPBiCG:  Solving for T, Initial residual = 4.6108e-07, Final residual = 9.01797e-09, No Iterations 480
GAMG:  Solving for p_rgh, Initial residual = 4.40052e-07, Final residual = 9.9872e-08, No Iterations 2
time step continuity errors : sum local = 4.49896e-06, global = -6.53169e-09, cumulative = -0.0749199
DILUPBiCG:  Solving for epsilon, Initial residual = 7.01351e-07, Final residual = 1.56595e-09, No Iterations 2
DILUPBiCG:  Solving for k, Initial residual = 1.60171e-06, Final residual = 1.34086e-09, No Iterations 3
ExecutionTime = 5914.06 s  ClockTime = 6131 s

Time = 4796

DILUPBiCG:  Solving for Ux, Initial residual = 1.39284e-07, Final residual = 6.33156e-10, No Iterations 3
DILUPBiCG:  Solving for Uy, Initial residual = 2.07274e-07, Final residual = 7.42091e-09, No Iterations 1
DILUPBiCG:  Solving for T, Initial residual = 4.59373e-07, Final residual = 9.34413e-09, No Iterations 561
GAMG:  Solving for p_rgh, Initial residual = 4.56172e-07, Final residual = 8.11454e-08, No Iterations 3
time step continuity errors : sum local = 3.65538e-06, global = 1.50772e-08, cumulative = -0.0749199
DILUPBiCG:  Solving for epsilon, Initial residual = 7.00579e-07, Final residual = 1.56391e-09, No Iterations 2
DILUPBiCG:  Solving for k, Initial residual = 1.59993e-06, Final residual = 1.33864e-09, No Iterations 3
ExecutionTime = 5916.21 s  ClockTime = 6134 s

Time = 4797

DILUPBiCG:  Solving for Ux, Initial residual = 1.39165e-07, Final residual = 6.32493e-10, No Iterations 3
DILUPBiCG:  Solving for Uy, Initial residual = 2.0697e-07, Final residual = 7.40666e-09, No Iterations 1
DILUPBiCG:  Solving for T, Initial residual = 4.59549e-07, Final residual = 4.32289e-09, No Iterations 564
GAMG:  Solving for p_rgh, Initial residual = 4.51714e-07, Final residual = 7.95128e-08, No Iterations 3
time step continuity errors : sum local = 3.58184e-06, global = -1.30809e-08, cumulative = -0.0749199
DILUPBiCG:  Solving for epsilon, Initial residual = 6.99817e-07, Final residual = 1.56208e-09, No Iterations 2
DILUPBiCG:  Solving for k, Initial residual = 1.59815e-06, Final residual = 1.33666e-09, No Iterations 3
ExecutionTime = 5918.08 s  ClockTime = 6136 s

Time = 4798

DILUPBiCG:  Solving for Ux, Initial residual = 1.3902e-07, Final residual = 6.30883e-10, No Iterations 3
DILUPBiCG:  Solving for Uy, Initial residual = 2.06691e-07, Final residual = 7.39601e-09, No Iterations 1
DILUPBiCG:  Solving for T, Initial residual = 4.53992e-07, Final residual = 9.95149e-09, No Iterations 456
GAMG:  Solving for p_rgh, Initial residual = 4.39389e-07, Final residual = 6.64936e-08, No Iterations 3
time step continuity errors : sum local = 2.99536e-06, global = -2.8333e-09, cumulative = -0.0749199
DILUPBiCG:  Solving for epsilon, Initial residual = 6.99061e-07, Final residual = 1.56034e-09, No Iterations 2
DILUPBiCG:  Solving for k, Initial residual = 1.59638e-06, Final residual = 1.33469e-09, No Iterations 3
ExecutionTime = 5919.5 s  ClockTime = 6138 s

Time = 4799

DILUPBiCG:  Solving for Ux, Initial residual = 1.3885e-07, Final residual = 6.30232e-10, No Iterations 3
DILUPBiCG:  Solving for Uy, Initial residual = 2.06449e-07, Final residual = 7.38759e-09, No Iterations 1
DILUPBiCG:  Solving for T, Initial residual = 4.58986e-07, Final residual = 9.74374e-09, No Iterations 435
GAMG:  Solving for p_rgh, Initial residual = 4.32513e-07, Final residual = 9.21123e-08, No Iterations 2
time step continuity errors : sum local = 4.14941e-06, global = -6.99007e-09, cumulative = -0.0749199
DILUPBiCG:  Solving for epsilon, Initial residual = 6.98299e-07, Final residual = 1.55887e-09, No Iterations 2
DILUPBiCG:  Solving for k, Initial residual = 1.5946e-06, Final residual = 1.33277e-09, No Iterations 3
ExecutionTime = 5920.9 s  ClockTime = 6140 s

Time = 4800

DILUPBiCG:  Solving for Ux, Initial residual = 1.38602e-07, Final residual = 6.29329e-10, No Iterations 3
DILUPBiCG:  Solving for Uy, Initial residual = 2.06311e-07, Final residual = 7.38611e-09, No Iterations 1
DILUPBiCG:  Solving for T, Initial residual = 4.57489e-07, Final residual = 9.99968e-09, No Iterations 459
GAMG:  Solving for p_rgh, Initial residual = 4.50997e-07, Final residual = 7.17298e-08, No Iterations 3
time step continuity errors : sum local = 3.23123e-06, global = 1.80032e-08, cumulative = -0.0749199
DILUPBiCG:  Solving for epsilon, Initial residual = 6.97521e-07, Final residual = 1.55702e-09, No Iterations 2
DILUPBiCG:  Solving for k, Initial residual = 1.59283e-06, Final residual = 1.33053e-09, No Iterations 3
ExecutionTime = 5922.7 s  ClockTime = 6142 s

Time = 4801

DILUPBiCG:  Solving for Ux, Initial residual = 1.38485e-07, Final residual = 6.29227e-10, No Iterations 3
DILUPBiCG:  Solving for Uy, Initial residual = 2.06002e-07, Final residual = 7.37135e-09, No Iterations 1
DILUPBiCG:  Solving for T, Initial residual = 4.57747e-07, Final residual = 9.66674e-09, No Iterations 443
GAMG:  Solving for p_rgh, Initial residual = 4.47611e-07, Final residual = 7.30595e-08, No Iterations 3
time step continuity errors : sum local = 3.29113e-06, global = -1.74474e-08, cumulative = -0.0749199
DILUPBiCG:  Solving for epsilon, Initial residual = 6.9676e-07, Final residual = 1.55541e-09, No Iterations 2
DILUPBiCG:  Solving for k, Initial residual = 1.59106e-06, Final residual = 1.3286e-09, No Iterations 3
ExecutionTime = 5925.29 s  ClockTime = 6145 s

Time = 4802

DILUPBiCG:  Solving for Ux, Initial residual = 1.38368e-07, Final residual = 6.278e-10, No Iterations 3
DILUPBiCG:  Solving for Uy, Initial residual = 2.05697e-07, Final residual = 7.35841e-09, No Iterations 1
DILUPBiCG:  Solving for T, Initial residual = 4.56263e-07, Final residual = 7.46307e-09, No Iterations 579
GAMG:  Solving for p_rgh, Initial residual = 4.35694e-07, Final residual = 6.45325e-08, No Iterations 3
time step continuity errors : sum local = 2.90701e-06, global = 1.24156e-09, cumulative = -0.0749199
DILUPBiCG:  Solving for epsilon, Initial residual = 6.96012e-07, Final residual = 1.55357e-09, No Iterations 2
8 total processes killed (some possibly by mpirun during cleanup)
